* SPICE NETLIST
***************************************
*HW2_Inverter_Chain_Branch_postsim
.lib 'cic018.l' TT
.temp 25
.unprot
.inc "ICB.pex.spi"
.option post

*Voltage
V1 VDD 0 1.8
V2 GND 0 0
VVIN_pulse VIN gnd pulse 0 1.8 10n 1n 1n 4n 10n

*Capacitor
CLa Vaout gnd 10pF
CLb Vbout gnd 10pF
CLc Vcout gnd 10pF

*Circuit
x1 GND VDD Vin Vaout Vbout Vcout ICB

*simulation setup
.Tran 1ps 50ns
.MEAS tran TpHL_N2 trig V(Vin) val=0.9 td=0 rise=1 targ V(Vaout) val=0.9 fall=1
.MEAS tran TpLH_N2 trig V(Vin) val=0.9 td=0 fall=1 targ V(Vaout) val=0.9 rise=1

.MEAS tran TpHL_N4 trig V(Vin) val=0.9 td=0 rise=1 targ V(Vbout) val=0.9 fall=1
.MEAS tran TpLH_N4 trig V(Vin) val=0.9 td=0 fall=1 targ V(Vbout) val=0.9 rise=1

.MEAS tran TpLL_N8 trig V(Vin) val=0.9 td=0 rise=1 targ V(Vcout) val=0.9 fall=1
.MEAS tran TpHH_N8 trig V(Vin) val=0.9 td=0 fall=1 targ V(Vcout) val=0.9 rise=1

.SUBCKT L POS NEG
.ENDS
.end
***************************************
.SUBCKT ICB GND VDD Vin Vaout Vbout Vcout
** N=20 EP=6 IP=0 FDC=3566
M0 4 Vin GND GND N_18 L=1.8e-07 W=5e-07 AD=2.45e-13 AS=2.45e-13 PD=1.48e-06 PS=1.48e-06 $X=-145 $Y=-166 $D=0
M1 5 4 GND GND N_18 L=1.8e-07 W=5e-07 AD=1.275e-13 AS=2.45e-13 PD=5.1e-07 PS=1.48e-06 $X=1415 $Y=-166 $D=0
M2 GND 4 5 GND N_18 L=1.8e-07 W=5e-07 AD=1.275e-13 AS=1.275e-13 PD=5.1e-07 PS=5.1e-07 $X=2105 $Y=-166 $D=0
M3 5 4 GND GND N_18 L=1.8e-07 W=5e-07 AD=1.275e-13 AS=1.275e-13 PD=5.1e-07 PS=5.1e-07 $X=2795 $Y=-166 $D=0
M4 GND 4 5 GND N_18 L=1.8e-07 W=5e-07 AD=1.275e-13 AS=1.275e-13 PD=5.1e-07 PS=5.1e-07 $X=3485 $Y=-166 $D=0
M5 5 4 GND GND N_18 L=1.8e-07 W=5e-07 AD=2.45e-13 AS=1.275e-13 PD=1.48e-06 PS=5.1e-07 $X=4175 $Y=-166 $D=0
M6 6 5 GND GND N_18 L=1.8e-07 W=5e-07 AD=1.275e-13 AS=2.45e-13 PD=5.1e-07 PS=1.48e-06 $X=5735 $Y=-166 $D=0
M7 GND 5 6 GND N_18 L=1.8e-07 W=5e-07 AD=1.275e-13 AS=1.275e-13 PD=5.1e-07 PS=5.1e-07 $X=6425 $Y=-166 $D=0
M8 6 5 GND GND N_18 L=1.8e-07 W=5e-07 AD=1.275e-13 AS=1.275e-13 PD=5.1e-07 PS=5.1e-07 $X=7115 $Y=-166 $D=0
M9 GND 5 6 GND N_18 L=1.8e-07 W=5e-07 AD=1.275e-13 AS=1.275e-13 PD=5.1e-07 PS=5.1e-07 $X=7805 $Y=-166 $D=0
M10 6 5 GND GND N_18 L=1.8e-07 W=5e-07 AD=1.275e-13 AS=1.275e-13 PD=5.1e-07 PS=5.1e-07 $X=8495 $Y=-166 $D=0
M11 GND 5 6 GND N_18 L=1.8e-07 W=5e-07 AD=1.275e-13 AS=1.275e-13 PD=5.1e-07 PS=5.1e-07 $X=9185 $Y=-166 $D=0
M12 6 5 GND GND N_18 L=1.8e-07 W=5e-07 AD=1.275e-13 AS=1.275e-13 PD=5.1e-07 PS=5.1e-07 $X=9875 $Y=-166 $D=0
M13 GND 5 6 GND N_18 L=1.8e-07 W=5e-07 AD=1.275e-13 AS=1.275e-13 PD=5.1e-07 PS=5.1e-07 $X=10565 $Y=-166 $D=0
M14 6 5 GND GND N_18 L=1.8e-07 W=5e-07 AD=1.275e-13 AS=1.275e-13 PD=5.1e-07 PS=5.1e-07 $X=11255 $Y=-166 $D=0
M15 GND 5 6 GND N_18 L=1.8e-07 W=5e-07 AD=1.275e-13 AS=1.275e-13 PD=5.1e-07 PS=5.1e-07 $X=11945 $Y=-166 $D=0
M16 6 5 GND GND N_18 L=1.8e-07 W=5e-07 AD=1.275e-13 AS=1.275e-13 PD=5.1e-07 PS=5.1e-07 $X=12635 $Y=-166 $D=0
M17 GND 5 6 GND N_18 L=1.8e-07 W=5e-07 AD=1.275e-13 AS=1.275e-13 PD=5.1e-07 PS=5.1e-07 $X=13325 $Y=-166 $D=0
M18 6 5 GND GND N_18 L=1.8e-07 W=5e-07 AD=1.275e-13 AS=1.275e-13 PD=5.1e-07 PS=5.1e-07 $X=14015 $Y=-166 $D=0
M19 GND 5 6 GND N_18 L=1.8e-07 W=5e-07 AD=1.275e-13 AS=1.275e-13 PD=5.1e-07 PS=5.1e-07 $X=14705 $Y=-166 $D=0
M20 6 5 GND GND N_18 L=1.8e-07 W=5e-07 AD=1.275e-13 AS=1.275e-13 PD=5.1e-07 PS=5.1e-07 $X=15395 $Y=-166 $D=0
M21 GND 5 6 GND N_18 L=1.8e-07 W=5e-07 AD=1.275e-13 AS=1.275e-13 PD=5.1e-07 PS=5.1e-07 $X=16085 $Y=-166 $D=0
M22 6 5 GND GND N_18 L=1.8e-07 W=5e-07 AD=1.275e-13 AS=1.275e-13 PD=5.1e-07 PS=5.1e-07 $X=16775 $Y=-166 $D=0
M23 GND 5 6 GND N_18 L=1.8e-07 W=5e-07 AD=1.275e-13 AS=1.275e-13 PD=5.1e-07 PS=5.1e-07 $X=17465 $Y=-166 $D=0
M24 6 5 GND GND N_18 L=1.8e-07 W=5e-07 AD=1.275e-13 AS=1.275e-13 PD=5.1e-07 PS=5.1e-07 $X=18155 $Y=-166 $D=0
M25 GND 5 6 GND N_18 L=1.8e-07 W=5e-07 AD=1.275e-13 AS=1.275e-13 PD=5.1e-07 PS=5.1e-07 $X=18845 $Y=-166 $D=0
M26 6 5 GND GND N_18 L=1.8e-07 W=5e-07 AD=1.275e-13 AS=1.275e-13 PD=5.1e-07 PS=5.1e-07 $X=19535 $Y=-166 $D=0
M27 GND 5 6 GND N_18 L=1.8e-07 W=5e-07 AD=1.275e-13 AS=1.275e-13 PD=5.1e-07 PS=5.1e-07 $X=20225 $Y=-166 $D=0
M28 6 5 GND GND N_18 L=1.8e-07 W=5e-07 AD=1.275e-13 AS=1.275e-13 PD=5.1e-07 PS=5.1e-07 $X=20915 $Y=-166 $D=0
M29 GND 5 6 GND N_18 L=1.8e-07 W=5e-07 AD=1.275e-13 AS=1.275e-13 PD=5.1e-07 PS=5.1e-07 $X=21605 $Y=-166 $D=0
M30 6 5 GND GND N_18 L=1.8e-07 W=5e-07 AD=1.275e-13 AS=1.275e-13 PD=5.1e-07 PS=5.1e-07 $X=22295 $Y=-166 $D=0
M31 GND 5 6 GND N_18 L=1.8e-07 W=5e-07 AD=1.275e-13 AS=1.275e-13 PD=5.1e-07 PS=5.1e-07 $X=22985 $Y=-166 $D=0
M32 6 5 GND GND N_18 L=1.8e-07 W=5e-07 AD=1.275e-13 AS=1.275e-13 PD=5.1e-07 PS=5.1e-07 $X=23675 $Y=-166 $D=0
M33 GND 5 6 GND N_18 L=1.8e-07 W=5e-07 AD=1.275e-13 AS=1.275e-13 PD=5.1e-07 PS=5.1e-07 $X=24365 $Y=-166 $D=0
M34 6 5 GND GND N_18 L=1.8e-07 W=5e-07 AD=1.275e-13 AS=1.275e-13 PD=5.1e-07 PS=5.1e-07 $X=25055 $Y=-166 $D=0
M35 GND 5 6 GND N_18 L=1.8e-07 W=5e-07 AD=1.275e-13 AS=1.275e-13 PD=5.1e-07 PS=5.1e-07 $X=25745 $Y=-166 $D=0
M36 6 5 GND GND N_18 L=1.8e-07 W=5e-07 AD=1.275e-13 AS=1.275e-13 PD=5.1e-07 PS=5.1e-07 $X=26435 $Y=-166 $D=0
M37 GND 5 6 GND N_18 L=1.8e-07 W=5e-07 AD=1.275e-13 AS=1.275e-13 PD=5.1e-07 PS=5.1e-07 $X=27125 $Y=-166 $D=0
M38 6 5 GND GND N_18 L=1.8e-07 W=5e-07 AD=1.275e-13 AS=1.275e-13 PD=5.1e-07 PS=5.1e-07 $X=27815 $Y=-166 $D=0
M39 GND 5 6 GND N_18 L=1.8e-07 W=5e-07 AD=1.275e-13 AS=1.275e-13 PD=5.1e-07 PS=5.1e-07 $X=28505 $Y=-166 $D=0
M40 6 5 GND GND N_18 L=1.8e-07 W=5e-07 AD=1.275e-13 AS=1.275e-13 PD=5.1e-07 PS=5.1e-07 $X=29195 $Y=-166 $D=0
M41 GND 5 6 GND N_18 L=1.8e-07 W=5e-07 AD=1.275e-13 AS=1.275e-13 PD=5.1e-07 PS=5.1e-07 $X=29885 $Y=-166 $D=0
M42 6 5 GND GND N_18 L=1.8e-07 W=5e-07 AD=1.275e-13 AS=1.275e-13 PD=5.1e-07 PS=5.1e-07 $X=30575 $Y=-166 $D=0
M43 GND 5 6 GND N_18 L=1.8e-07 W=5e-07 AD=1.275e-13 AS=1.275e-13 PD=5.1e-07 PS=5.1e-07 $X=31265 $Y=-166 $D=0
M44 6 5 GND GND N_18 L=1.8e-07 W=5e-07 AD=1.275e-13 AS=1.275e-13 PD=5.1e-07 PS=5.1e-07 $X=31955 $Y=-166 $D=0
M45 GND 5 6 GND N_18 L=1.8e-07 W=5e-07 AD=1.275e-13 AS=1.275e-13 PD=5.1e-07 PS=5.1e-07 $X=32645 $Y=-166 $D=0
M46 6 5 GND GND N_18 L=1.8e-07 W=5e-07 AD=2.45e-13 AS=1.275e-13 PD=1.48e-06 PS=5.1e-07 $X=33335 $Y=-166 $D=0
M47 7 6 GND GND N_18 L=1.8e-07 W=5e-07 AD=2.45e-13 AS=2.45e-13 PD=1.48e-06 PS=1.48e-06 $X=38665 $Y=-7792 $D=0
M48 8 6 GND GND N_18 L=1.8e-07 W=5e-07 AD=2.45e-13 AS=2.45e-13 PD=1.48e-06 PS=1.48e-06 $X=38665 $Y=-166 $D=0
M49 9 6 GND GND N_18 L=1.8e-07 W=5e-07 AD=2.45e-13 AS=2.45e-13 PD=1.48e-06 PS=1.48e-06 $X=38665 $Y=7460 $D=0
M50 10 7 GND GND N_18 L=1.8e-07 W=5e-07 AD=1.275e-13 AS=2.45e-13 PD=5.1e-07 PS=1.48e-06 $X=40225 $Y=-7792 $D=0
M51 11 8 GND GND N_18 L=1.8e-07 W=5e-07 AD=1.275e-13 AS=2.45e-13 PD=5.1e-07 PS=1.48e-06 $X=40225 $Y=-166 $D=0
M52 Vaout 9 GND GND N_18 L=1.8e-07 W=5e-07 AD=1.275e-13 AS=2.45e-13 PD=5.1e-07 PS=1.48e-06 $X=40225 $Y=7460 $D=0
M53 GND 7 10 GND N_18 L=1.8e-07 W=5e-07 AD=1.275e-13 AS=1.275e-13 PD=5.1e-07 PS=5.1e-07 $X=40915 $Y=-7792 $D=0
M54 GND 8 11 GND N_18 L=1.8e-07 W=5e-07 AD=1.275e-13 AS=1.275e-13 PD=5.1e-07 PS=5.1e-07 $X=40915 $Y=-166 $D=0
M55 GND 9 Vaout GND N_18 L=1.8e-07 W=5e-07 AD=1.275e-13 AS=1.275e-13 PD=5.1e-07 PS=5.1e-07 $X=40915 $Y=7460 $D=0
M56 10 7 GND GND N_18 L=1.8e-07 W=5e-07 AD=2.45e-13 AS=1.275e-13 PD=1.48e-06 PS=5.1e-07 $X=41605 $Y=-7792 $D=0
M57 11 8 GND GND N_18 L=1.8e-07 W=5e-07 AD=1.275e-13 AS=1.275e-13 PD=5.1e-07 PS=5.1e-07 $X=41605 $Y=-166 $D=0
M58 Vaout 9 GND GND N_18 L=1.8e-07 W=5e-07 AD=1.275e-13 AS=1.275e-13 PD=5.1e-07 PS=5.1e-07 $X=41605 $Y=7460 $D=0
M59 GND 8 11 GND N_18 L=1.8e-07 W=5e-07 AD=1.275e-13 AS=1.275e-13 PD=5.1e-07 PS=5.1e-07 $X=42295 $Y=-166 $D=0
M60 GND 9 Vaout GND N_18 L=1.8e-07 W=5e-07 AD=1.275e-13 AS=1.275e-13 PD=5.1e-07 PS=5.1e-07 $X=42295 $Y=7460 $D=0
M61 11 8 GND GND N_18 L=1.8e-07 W=5e-07 AD=1.275e-13 AS=1.275e-13 PD=5.1e-07 PS=5.1e-07 $X=42985 $Y=-166 $D=0
M62 Vaout 9 GND GND N_18 L=1.8e-07 W=5e-07 AD=1.275e-13 AS=1.275e-13 PD=5.1e-07 PS=5.1e-07 $X=42985 $Y=7460 $D=0
M63 12 10 GND GND N_18 L=1.8e-07 W=5e-07 AD=1.275e-13 AS=2.45e-13 PD=5.1e-07 PS=1.48e-06 $X=43165 $Y=-7792 $D=0
M64 GND 8 11 GND N_18 L=1.8e-07 W=5e-07 AD=1.275e-13 AS=1.275e-13 PD=5.1e-07 PS=5.1e-07 $X=43675 $Y=-166 $D=0
M65 GND 9 Vaout GND N_18 L=1.8e-07 W=5e-07 AD=1.275e-13 AS=1.275e-13 PD=5.1e-07 PS=5.1e-07 $X=43675 $Y=7460 $D=0
M66 GND 10 12 GND N_18 L=1.8e-07 W=5e-07 AD=1.275e-13 AS=1.275e-13 PD=5.1e-07 PS=5.1e-07 $X=43855 $Y=-7792 $D=0
M67 11 8 GND GND N_18 L=1.8e-07 W=5e-07 AD=2.45e-13 AS=1.275e-13 PD=1.48e-06 PS=5.1e-07 $X=44365 $Y=-166 $D=0
M68 Vaout 9 GND GND N_18 L=1.8e-07 W=5e-07 AD=1.275e-13 AS=1.275e-13 PD=5.1e-07 PS=5.1e-07 $X=44365 $Y=7460 $D=0
M69 12 10 GND GND N_18 L=1.8e-07 W=5e-07 AD=1.275e-13 AS=1.275e-13 PD=5.1e-07 PS=5.1e-07 $X=44545 $Y=-7792 $D=0
M70 GND 9 Vaout GND N_18 L=1.8e-07 W=5e-07 AD=1.275e-13 AS=1.275e-13 PD=5.1e-07 PS=5.1e-07 $X=45055 $Y=7460 $D=0
M71 GND 10 12 GND N_18 L=1.8e-07 W=5e-07 AD=1.275e-13 AS=1.275e-13 PD=5.1e-07 PS=5.1e-07 $X=45235 $Y=-7792 $D=0
M72 Vaout 9 GND GND N_18 L=1.8e-07 W=5e-07 AD=1.275e-13 AS=1.275e-13 PD=5.1e-07 PS=5.1e-07 $X=45745 $Y=7460 $D=0
M73 12 10 GND GND N_18 L=1.8e-07 W=5e-07 AD=1.275e-13 AS=1.275e-13 PD=5.1e-07 PS=5.1e-07 $X=45925 $Y=-7792 $D=0
M74 15 11 GND GND N_18 L=1.8e-07 W=5e-07 AD=1.275e-13 AS=2.45e-13 PD=5.1e-07 PS=1.48e-06 $X=45925 $Y=-166 $D=0
M75 GND 9 Vaout GND N_18 L=1.8e-07 W=5e-07 AD=1.275e-13 AS=1.275e-13 PD=5.1e-07 PS=5.1e-07 $X=46435 $Y=7460 $D=0
M76 GND 10 12 GND N_18 L=1.8e-07 W=5e-07 AD=1.275e-13 AS=1.275e-13 PD=5.1e-07 PS=5.1e-07 $X=46615 $Y=-7792 $D=0
M77 GND 11 15 GND N_18 L=1.8e-07 W=5e-07 AD=1.275e-13 AS=1.275e-13 PD=5.1e-07 PS=5.1e-07 $X=46615 $Y=-166 $D=0
M78 Vaout 9 GND GND N_18 L=1.8e-07 W=5e-07 AD=1.275e-13 AS=1.275e-13 PD=5.1e-07 PS=5.1e-07 $X=47125 $Y=7460 $D=0
M79 12 10 GND GND N_18 L=1.8e-07 W=5e-07 AD=2.45e-13 AS=1.275e-13 PD=1.48e-06 PS=5.1e-07 $X=47305 $Y=-7792 $D=0
M80 15 11 GND GND N_18 L=1.8e-07 W=5e-07 AD=1.275e-13 AS=1.275e-13 PD=5.1e-07 PS=5.1e-07 $X=47305 $Y=-166 $D=0
M81 GND 9 Vaout GND N_18 L=1.8e-07 W=5e-07 AD=1.275e-13 AS=1.275e-13 PD=5.1e-07 PS=5.1e-07 $X=47815 $Y=7460 $D=0
M82 GND 11 15 GND N_18 L=1.8e-07 W=5e-07 AD=1.275e-13 AS=1.275e-13 PD=5.1e-07 PS=5.1e-07 $X=47995 $Y=-166 $D=0
M83 Vaout 9 GND GND N_18 L=1.8e-07 W=5e-07 AD=1.275e-13 AS=1.275e-13 PD=5.1e-07 PS=5.1e-07 $X=48505 $Y=7460 $D=0
M84 15 11 GND GND N_18 L=1.8e-07 W=5e-07 AD=1.275e-13 AS=1.275e-13 PD=5.1e-07 PS=5.1e-07 $X=48685 $Y=-166 $D=0
M85 13 12 GND GND N_18 L=1.8e-07 W=5e-07 AD=1.275e-13 AS=2.45e-13 PD=5.1e-07 PS=1.48e-06 $X=48865 $Y=-7792 $D=0
M86 GND 9 Vaout GND N_18 L=1.8e-07 W=5e-07 AD=1.275e-13 AS=1.275e-13 PD=5.1e-07 PS=5.1e-07 $X=49195 $Y=7460 $D=0
M87 GND 11 15 GND N_18 L=1.8e-07 W=5e-07 AD=1.275e-13 AS=1.275e-13 PD=5.1e-07 PS=5.1e-07 $X=49375 $Y=-166 $D=0
M88 GND 12 13 GND N_18 L=1.8e-07 W=5e-07 AD=1.275e-13 AS=1.275e-13 PD=5.1e-07 PS=5.1e-07 $X=49555 $Y=-7792 $D=0
M89 Vaout 9 GND GND N_18 L=1.8e-07 W=5e-07 AD=1.275e-13 AS=1.275e-13 PD=5.1e-07 PS=5.1e-07 $X=49885 $Y=7460 $D=0
M90 15 11 GND GND N_18 L=1.8e-07 W=5e-07 AD=1.275e-13 AS=1.275e-13 PD=5.1e-07 PS=5.1e-07 $X=50065 $Y=-166 $D=0
M91 13 12 GND GND N_18 L=1.8e-07 W=5e-07 AD=1.275e-13 AS=1.275e-13 PD=5.1e-07 PS=5.1e-07 $X=50245 $Y=-7792 $D=0
M92 GND 9 Vaout GND N_18 L=1.8e-07 W=5e-07 AD=1.275e-13 AS=1.275e-13 PD=5.1e-07 PS=5.1e-07 $X=50575 $Y=7460 $D=0
M93 GND 11 15 GND N_18 L=1.8e-07 W=5e-07 AD=1.275e-13 AS=1.275e-13 PD=5.1e-07 PS=5.1e-07 $X=50755 $Y=-166 $D=0
M94 GND 12 13 GND N_18 L=1.8e-07 W=5e-07 AD=1.275e-13 AS=1.275e-13 PD=5.1e-07 PS=5.1e-07 $X=50935 $Y=-7792 $D=0
M95 Vaout 9 GND GND N_18 L=1.8e-07 W=5e-07 AD=1.275e-13 AS=1.275e-13 PD=5.1e-07 PS=5.1e-07 $X=51265 $Y=7460 $D=0
M96 15 11 GND GND N_18 L=1.8e-07 W=5e-07 AD=1.275e-13 AS=1.275e-13 PD=5.1e-07 PS=5.1e-07 $X=51445 $Y=-166 $D=0
M97 13 12 GND GND N_18 L=1.8e-07 W=5e-07 AD=1.275e-13 AS=1.275e-13 PD=5.1e-07 PS=5.1e-07 $X=51625 $Y=-7792 $D=0
M98 GND 9 Vaout GND N_18 L=1.8e-07 W=5e-07 AD=1.275e-13 AS=1.275e-13 PD=5.1e-07 PS=5.1e-07 $X=51955 $Y=7460 $D=0
M99 GND 11 15 GND N_18 L=1.8e-07 W=5e-07 AD=1.275e-13 AS=1.275e-13 PD=5.1e-07 PS=5.1e-07 $X=52135 $Y=-166 $D=0
M100 GND 12 13 GND N_18 L=1.8e-07 W=5e-07 AD=1.275e-13 AS=1.275e-13 PD=5.1e-07 PS=5.1e-07 $X=52315 $Y=-7792 $D=0
M101 Vaout 9 GND GND N_18 L=1.8e-07 W=5e-07 AD=1.275e-13 AS=1.275e-13 PD=5.1e-07 PS=5.1e-07 $X=52645 $Y=7460 $D=0
M102 15 11 GND GND N_18 L=1.8e-07 W=5e-07 AD=1.275e-13 AS=1.275e-13 PD=5.1e-07 PS=5.1e-07 $X=52825 $Y=-166 $D=0
M103 13 12 GND GND N_18 L=1.8e-07 W=5e-07 AD=1.275e-13 AS=1.275e-13 PD=5.1e-07 PS=5.1e-07 $X=53005 $Y=-7792 $D=0
M104 GND 9 Vaout GND N_18 L=1.8e-07 W=5e-07 AD=1.275e-13 AS=1.275e-13 PD=5.1e-07 PS=5.1e-07 $X=53335 $Y=7460 $D=0
M105 GND 11 15 GND N_18 L=1.8e-07 W=5e-07 AD=1.275e-13 AS=1.275e-13 PD=5.1e-07 PS=5.1e-07 $X=53515 $Y=-166 $D=0
M106 GND 12 13 GND N_18 L=1.8e-07 W=5e-07 AD=1.275e-13 AS=1.275e-13 PD=5.1e-07 PS=5.1e-07 $X=53695 $Y=-7792 $D=0
M107 Vaout 9 GND GND N_18 L=1.8e-07 W=5e-07 AD=1.275e-13 AS=1.275e-13 PD=5.1e-07 PS=5.1e-07 $X=54025 $Y=7460 $D=0
M108 15 11 GND GND N_18 L=1.8e-07 W=5e-07 AD=1.275e-13 AS=1.275e-13 PD=5.1e-07 PS=5.1e-07 $X=54205 $Y=-166 $D=0
M109 13 12 GND GND N_18 L=1.8e-07 W=5e-07 AD=1.275e-13 AS=1.275e-13 PD=5.1e-07 PS=5.1e-07 $X=54385 $Y=-7792 $D=0
M110 GND 9 Vaout GND N_18 L=1.8e-07 W=5e-07 AD=1.275e-13 AS=1.275e-13 PD=5.1e-07 PS=5.1e-07 $X=54715 $Y=7460 $D=0
M111 GND 11 15 GND N_18 L=1.8e-07 W=5e-07 AD=1.275e-13 AS=1.275e-13 PD=5.1e-07 PS=5.1e-07 $X=54895 $Y=-166 $D=0
M112 GND 12 13 GND N_18 L=1.8e-07 W=5e-07 AD=1.275e-13 AS=1.275e-13 PD=5.1e-07 PS=5.1e-07 $X=55075 $Y=-7792 $D=0
M113 Vaout 9 GND GND N_18 L=1.8e-07 W=5e-07 AD=1.275e-13 AS=1.275e-13 PD=5.1e-07 PS=5.1e-07 $X=55405 $Y=7460 $D=0
M114 15 11 GND GND N_18 L=1.8e-07 W=5e-07 AD=1.275e-13 AS=1.275e-13 PD=5.1e-07 PS=5.1e-07 $X=55585 $Y=-166 $D=0
M115 13 12 GND GND N_18 L=1.8e-07 W=5e-07 AD=1.275e-13 AS=1.275e-13 PD=5.1e-07 PS=5.1e-07 $X=55765 $Y=-7792 $D=0
M116 GND 9 Vaout GND N_18 L=1.8e-07 W=5e-07 AD=1.275e-13 AS=1.275e-13 PD=5.1e-07 PS=5.1e-07 $X=56095 $Y=7460 $D=0
M117 GND 11 15 GND N_18 L=1.8e-07 W=5e-07 AD=1.275e-13 AS=1.275e-13 PD=5.1e-07 PS=5.1e-07 $X=56275 $Y=-166 $D=0
M118 GND 12 13 GND N_18 L=1.8e-07 W=5e-07 AD=1.275e-13 AS=1.275e-13 PD=5.1e-07 PS=5.1e-07 $X=56455 $Y=-7792 $D=0
M119 Vaout 9 GND GND N_18 L=1.8e-07 W=5e-07 AD=1.275e-13 AS=1.275e-13 PD=5.1e-07 PS=5.1e-07 $X=56785 $Y=7460 $D=0
M120 15 11 GND GND N_18 L=1.8e-07 W=5e-07 AD=1.275e-13 AS=1.275e-13 PD=5.1e-07 PS=5.1e-07 $X=56965 $Y=-166 $D=0
M121 13 12 GND GND N_18 L=1.8e-07 W=5e-07 AD=1.275e-13 AS=1.275e-13 PD=5.1e-07 PS=5.1e-07 $X=57145 $Y=-7792 $D=0
M122 GND 9 Vaout GND N_18 L=1.8e-07 W=5e-07 AD=1.275e-13 AS=1.275e-13 PD=5.1e-07 PS=5.1e-07 $X=57475 $Y=7460 $D=0
M123 GND 11 15 GND N_18 L=1.8e-07 W=5e-07 AD=1.275e-13 AS=1.275e-13 PD=5.1e-07 PS=5.1e-07 $X=57655 $Y=-166 $D=0
M124 GND 12 13 GND N_18 L=1.8e-07 W=5e-07 AD=1.275e-13 AS=1.275e-13 PD=5.1e-07 PS=5.1e-07 $X=57835 $Y=-7792 $D=0
M125 Vaout 9 GND GND N_18 L=1.8e-07 W=5e-07 AD=1.275e-13 AS=1.275e-13 PD=5.1e-07 PS=5.1e-07 $X=58165 $Y=7460 $D=0
M126 15 11 GND GND N_18 L=1.8e-07 W=5e-07 AD=1.275e-13 AS=1.275e-13 PD=5.1e-07 PS=5.1e-07 $X=58345 $Y=-166 $D=0
M127 13 12 GND GND N_18 L=1.8e-07 W=5e-07 AD=1.275e-13 AS=1.275e-13 PD=5.1e-07 PS=5.1e-07 $X=58525 $Y=-7792 $D=0
M128 GND 9 Vaout GND N_18 L=1.8e-07 W=5e-07 AD=1.275e-13 AS=1.275e-13 PD=5.1e-07 PS=5.1e-07 $X=58855 $Y=7460 $D=0
M129 GND 11 15 GND N_18 L=1.8e-07 W=5e-07 AD=1.275e-13 AS=1.275e-13 PD=5.1e-07 PS=5.1e-07 $X=59035 $Y=-166 $D=0
M130 GND 12 13 GND N_18 L=1.8e-07 W=5e-07 AD=1.275e-13 AS=1.275e-13 PD=5.1e-07 PS=5.1e-07 $X=59215 $Y=-7792 $D=0
M131 Vaout 9 GND GND N_18 L=1.8e-07 W=5e-07 AD=1.275e-13 AS=1.275e-13 PD=5.1e-07 PS=5.1e-07 $X=59545 $Y=7460 $D=0
M132 15 11 GND GND N_18 L=1.8e-07 W=5e-07 AD=1.275e-13 AS=1.275e-13 PD=5.1e-07 PS=5.1e-07 $X=59725 $Y=-166 $D=0
M133 13 12 GND GND N_18 L=1.8e-07 W=5e-07 AD=1.275e-13 AS=1.275e-13 PD=5.1e-07 PS=5.1e-07 $X=59905 $Y=-7792 $D=0
M134 GND 9 Vaout GND N_18 L=1.8e-07 W=5e-07 AD=1.275e-13 AS=1.275e-13 PD=5.1e-07 PS=5.1e-07 $X=60235 $Y=7460 $D=0
M135 GND 11 15 GND N_18 L=1.8e-07 W=5e-07 AD=1.275e-13 AS=1.275e-13 PD=5.1e-07 PS=5.1e-07 $X=60415 $Y=-166 $D=0
M136 GND 12 13 GND N_18 L=1.8e-07 W=5e-07 AD=2.45e-13 AS=1.275e-13 PD=1.48e-06 PS=5.1e-07 $X=60595 $Y=-7792 $D=0
M137 Vaout 9 GND GND N_18 L=1.8e-07 W=5e-07 AD=1.275e-13 AS=1.275e-13 PD=5.1e-07 PS=5.1e-07 $X=60925 $Y=7460 $D=0
M138 15 11 GND GND N_18 L=1.8e-07 W=5e-07 AD=1.275e-13 AS=1.275e-13 PD=5.1e-07 PS=5.1e-07 $X=61105 $Y=-166 $D=0
M139 GND 9 Vaout GND N_18 L=1.8e-07 W=5e-07 AD=1.275e-13 AS=1.275e-13 PD=5.1e-07 PS=5.1e-07 $X=61615 $Y=7460 $D=0
M140 GND 11 15 GND N_18 L=1.8e-07 W=5e-07 AD=1.275e-13 AS=1.275e-13 PD=5.1e-07 PS=5.1e-07 $X=61795 $Y=-166 $D=0
M141 16 13 GND GND N_18 L=1.8e-07 W=5e-07 AD=1.275e-13 AS=2.45e-13 PD=5.1e-07 PS=1.48e-06 $X=62155 $Y=-7792 $D=0
M142 Vaout 9 GND GND N_18 L=1.8e-07 W=5e-07 AD=1.275e-13 AS=1.275e-13 PD=5.1e-07 PS=5.1e-07 $X=62305 $Y=7460 $D=0
M143 15 11 GND GND N_18 L=1.8e-07 W=5e-07 AD=1.275e-13 AS=1.275e-13 PD=5.1e-07 PS=5.1e-07 $X=62485 $Y=-166 $D=0
M144 GND 13 16 GND N_18 L=1.8e-07 W=5e-07 AD=1.275e-13 AS=1.275e-13 PD=5.1e-07 PS=5.1e-07 $X=62845 $Y=-7792 $D=0
M145 GND 9 Vaout GND N_18 L=1.8e-07 W=5e-07 AD=1.275e-13 AS=1.275e-13 PD=5.1e-07 PS=5.1e-07 $X=62995 $Y=7460 $D=0
M146 GND 11 15 GND N_18 L=1.8e-07 W=5e-07 AD=1.275e-13 AS=1.275e-13 PD=5.1e-07 PS=5.1e-07 $X=63175 $Y=-166 $D=0
M147 16 13 GND GND N_18 L=1.8e-07 W=5e-07 AD=1.275e-13 AS=1.275e-13 PD=5.1e-07 PS=5.1e-07 $X=63535 $Y=-7792 $D=0
M148 Vaout 9 GND GND N_18 L=1.8e-07 W=5e-07 AD=1.275e-13 AS=1.275e-13 PD=5.1e-07 PS=5.1e-07 $X=63685 $Y=7460 $D=0
M149 15 11 GND GND N_18 L=1.8e-07 W=5e-07 AD=1.275e-13 AS=1.275e-13 PD=5.1e-07 PS=5.1e-07 $X=63865 $Y=-166 $D=0
M150 GND 13 16 GND N_18 L=1.8e-07 W=5e-07 AD=1.275e-13 AS=1.275e-13 PD=5.1e-07 PS=5.1e-07 $X=64225 $Y=-7792 $D=0
M151 GND 9 Vaout GND N_18 L=1.8e-07 W=5e-07 AD=1.275e-13 AS=1.275e-13 PD=5.1e-07 PS=5.1e-07 $X=64375 $Y=7460 $D=0
M152 GND 11 15 GND N_18 L=1.8e-07 W=5e-07 AD=1.275e-13 AS=1.275e-13 PD=5.1e-07 PS=5.1e-07 $X=64555 $Y=-166 $D=0
M153 16 13 GND GND N_18 L=1.8e-07 W=5e-07 AD=1.275e-13 AS=1.275e-13 PD=5.1e-07 PS=5.1e-07 $X=64915 $Y=-7792 $D=0
M154 Vaout 9 GND GND N_18 L=1.8e-07 W=5e-07 AD=1.275e-13 AS=1.275e-13 PD=5.1e-07 PS=5.1e-07 $X=65065 $Y=7460 $D=0
M155 15 11 GND GND N_18 L=1.8e-07 W=5e-07 AD=1.275e-13 AS=1.275e-13 PD=5.1e-07 PS=5.1e-07 $X=65245 $Y=-166 $D=0
M156 GND 13 16 GND N_18 L=1.8e-07 W=5e-07 AD=1.275e-13 AS=1.275e-13 PD=5.1e-07 PS=5.1e-07 $X=65605 $Y=-7792 $D=0
M157 GND 9 Vaout GND N_18 L=1.8e-07 W=5e-07 AD=1.275e-13 AS=1.275e-13 PD=5.1e-07 PS=5.1e-07 $X=65755 $Y=7460 $D=0
M158 GND 11 15 GND N_18 L=1.8e-07 W=5e-07 AD=1.275e-13 AS=1.275e-13 PD=5.1e-07 PS=5.1e-07 $X=65935 $Y=-166 $D=0
M159 16 13 GND GND N_18 L=1.8e-07 W=5e-07 AD=1.275e-13 AS=1.275e-13 PD=5.1e-07 PS=5.1e-07 $X=66295 $Y=-7792 $D=0
M160 Vaout 9 GND GND N_18 L=1.8e-07 W=5e-07 AD=1.275e-13 AS=1.275e-13 PD=5.1e-07 PS=5.1e-07 $X=66445 $Y=7460 $D=0
M161 15 11 GND GND N_18 L=1.8e-07 W=5e-07 AD=1.275e-13 AS=1.275e-13 PD=5.1e-07 PS=5.1e-07 $X=66625 $Y=-166 $D=0
M162 GND 13 16 GND N_18 L=1.8e-07 W=5e-07 AD=1.275e-13 AS=1.275e-13 PD=5.1e-07 PS=5.1e-07 $X=66985 $Y=-7792 $D=0
M163 GND 9 Vaout GND N_18 L=1.8e-07 W=5e-07 AD=1.275e-13 AS=1.275e-13 PD=5.1e-07 PS=5.1e-07 $X=67135 $Y=7460 $D=0
M164 GND 11 15 GND N_18 L=1.8e-07 W=5e-07 AD=1.275e-13 AS=1.275e-13 PD=5.1e-07 PS=5.1e-07 $X=67315 $Y=-166 $D=0
M165 16 13 GND GND N_18 L=1.8e-07 W=5e-07 AD=1.275e-13 AS=1.275e-13 PD=5.1e-07 PS=5.1e-07 $X=67675 $Y=-7792 $D=0
M166 Vaout 9 GND GND N_18 L=1.8e-07 W=5e-07 AD=1.275e-13 AS=1.275e-13 PD=5.1e-07 PS=5.1e-07 $X=67825 $Y=7460 $D=0
M167 15 11 GND GND N_18 L=1.8e-07 W=5e-07 AD=1.275e-13 AS=1.275e-13 PD=5.1e-07 PS=5.1e-07 $X=68005 $Y=-166 $D=0
M168 GND 13 16 GND N_18 L=1.8e-07 W=5e-07 AD=1.275e-13 AS=1.275e-13 PD=5.1e-07 PS=5.1e-07 $X=68365 $Y=-7792 $D=0
M169 GND 9 Vaout GND N_18 L=1.8e-07 W=5e-07 AD=1.275e-13 AS=1.275e-13 PD=5.1e-07 PS=5.1e-07 $X=68515 $Y=7460 $D=0
M170 GND 11 15 GND N_18 L=1.8e-07 W=5e-07 AD=1.275e-13 AS=1.275e-13 PD=5.1e-07 PS=5.1e-07 $X=68695 $Y=-166 $D=0
M171 16 13 GND GND N_18 L=1.8e-07 W=5e-07 AD=1.275e-13 AS=1.275e-13 PD=5.1e-07 PS=5.1e-07 $X=69055 $Y=-7792 $D=0
M172 Vaout 9 GND GND N_18 L=1.8e-07 W=5e-07 AD=1.275e-13 AS=1.275e-13 PD=5.1e-07 PS=5.1e-07 $X=69205 $Y=7460 $D=0
M173 15 11 GND GND N_18 L=1.8e-07 W=5e-07 AD=1.275e-13 AS=1.275e-13 PD=5.1e-07 PS=5.1e-07 $X=69385 $Y=-166 $D=0
M174 GND 13 16 GND N_18 L=1.8e-07 W=5e-07 AD=1.275e-13 AS=1.275e-13 PD=5.1e-07 PS=5.1e-07 $X=69745 $Y=-7792 $D=0
M175 GND 9 Vaout GND N_18 L=1.8e-07 W=5e-07 AD=1.275e-13 AS=1.275e-13 PD=5.1e-07 PS=5.1e-07 $X=69895 $Y=7460 $D=0
M176 GND 11 15 GND N_18 L=1.8e-07 W=5e-07 AD=1.275e-13 AS=1.275e-13 PD=5.1e-07 PS=5.1e-07 $X=70075 $Y=-166 $D=0
M177 16 13 GND GND N_18 L=1.8e-07 W=5e-07 AD=1.275e-13 AS=1.275e-13 PD=5.1e-07 PS=5.1e-07 $X=70435 $Y=-7792 $D=0
M178 Vaout 9 GND GND N_18 L=1.8e-07 W=5e-07 AD=1.275e-13 AS=1.275e-13 PD=5.1e-07 PS=5.1e-07 $X=70585 $Y=7460 $D=0
M179 15 11 GND GND N_18 L=1.8e-07 W=5e-07 AD=1.275e-13 AS=1.275e-13 PD=5.1e-07 PS=5.1e-07 $X=70765 $Y=-166 $D=0
M180 GND 13 16 GND N_18 L=1.8e-07 W=5e-07 AD=1.275e-13 AS=1.275e-13 PD=5.1e-07 PS=5.1e-07 $X=71125 $Y=-7792 $D=0
M181 GND 9 Vaout GND N_18 L=1.8e-07 W=5e-07 AD=2.45e-13 AS=1.275e-13 PD=1.48e-06 PS=5.1e-07 $X=71275 $Y=7460 $D=0
M182 GND 11 15 GND N_18 L=1.8e-07 W=5e-07 AD=1.275e-13 AS=1.275e-13 PD=5.1e-07 PS=5.1e-07 $X=71455 $Y=-166 $D=0
M183 16 13 GND GND N_18 L=1.8e-07 W=5e-07 AD=1.275e-13 AS=1.275e-13 PD=5.1e-07 PS=5.1e-07 $X=71815 $Y=-7792 $D=0
M184 15 11 GND GND N_18 L=1.8e-07 W=5e-07 AD=1.275e-13 AS=1.275e-13 PD=5.1e-07 PS=5.1e-07 $X=72145 $Y=-166 $D=0
M185 GND 13 16 GND N_18 L=1.8e-07 W=5e-07 AD=1.275e-13 AS=1.275e-13 PD=5.1e-07 PS=5.1e-07 $X=72505 $Y=-7792 $D=0
M186 GND 11 15 GND N_18 L=1.8e-07 W=5e-07 AD=1.275e-13 AS=1.275e-13 PD=5.1e-07 PS=5.1e-07 $X=72835 $Y=-166 $D=0
M187 16 13 GND GND N_18 L=1.8e-07 W=5e-07 AD=1.275e-13 AS=1.275e-13 PD=5.1e-07 PS=5.1e-07 $X=73195 $Y=-7792 $D=0
M188 15 11 GND GND N_18 L=1.8e-07 W=5e-07 AD=1.275e-13 AS=1.275e-13 PD=5.1e-07 PS=5.1e-07 $X=73525 $Y=-166 $D=0
M189 GND 13 16 GND N_18 L=1.8e-07 W=5e-07 AD=1.275e-13 AS=1.275e-13 PD=5.1e-07 PS=5.1e-07 $X=73885 $Y=-7792 $D=0
M190 GND 11 15 GND N_18 L=1.8e-07 W=5e-07 AD=1.275e-13 AS=1.275e-13 PD=5.1e-07 PS=5.1e-07 $X=74215 $Y=-166 $D=0
M191 16 13 GND GND N_18 L=1.8e-07 W=5e-07 AD=1.275e-13 AS=1.275e-13 PD=5.1e-07 PS=5.1e-07 $X=74575 $Y=-7792 $D=0
M192 15 11 GND GND N_18 L=1.8e-07 W=5e-07 AD=1.275e-13 AS=1.275e-13 PD=5.1e-07 PS=5.1e-07 $X=74905 $Y=-166 $D=0
M193 GND 13 16 GND N_18 L=1.8e-07 W=5e-07 AD=1.275e-13 AS=1.275e-13 PD=5.1e-07 PS=5.1e-07 $X=75265 $Y=-7792 $D=0
M194 GND 11 15 GND N_18 L=1.8e-07 W=5e-07 AD=1.275e-13 AS=1.275e-13 PD=5.1e-07 PS=5.1e-07 $X=75595 $Y=-166 $D=0
M195 16 13 GND GND N_18 L=1.8e-07 W=5e-07 AD=1.275e-13 AS=1.275e-13 PD=5.1e-07 PS=5.1e-07 $X=75955 $Y=-7792 $D=0
M196 15 11 GND GND N_18 L=1.8e-07 W=5e-07 AD=1.275e-13 AS=1.275e-13 PD=5.1e-07 PS=5.1e-07 $X=76285 $Y=-166 $D=0
M197 GND 13 16 GND N_18 L=1.8e-07 W=5e-07 AD=1.275e-13 AS=1.275e-13 PD=5.1e-07 PS=5.1e-07 $X=76645 $Y=-7792 $D=0
M198 GND 11 15 GND N_18 L=1.8e-07 W=5e-07 AD=2.45e-13 AS=1.275e-13 PD=1.48e-06 PS=5.1e-07 $X=76975 $Y=-166 $D=0
M199 16 13 GND GND N_18 L=1.8e-07 W=5e-07 AD=1.275e-13 AS=1.275e-13 PD=5.1e-07 PS=5.1e-07 $X=77335 $Y=-7792 $D=0
M200 GND 13 16 GND N_18 L=1.8e-07 W=5e-07 AD=1.275e-13 AS=1.275e-13 PD=5.1e-07 PS=5.1e-07 $X=78025 $Y=-7792 $D=0
M201 Vbout 15 GND GND N_18 L=1.8e-07 W=5e-07 AD=1.275e-13 AS=2.45e-13 PD=5.1e-07 PS=1.48e-06 $X=78535 $Y=-166 $D=0
M202 16 13 GND GND N_18 L=1.8e-07 W=5e-07 AD=1.275e-13 AS=1.275e-13 PD=5.1e-07 PS=5.1e-07 $X=78715 $Y=-7792 $D=0
M203 GND 15 Vbout GND N_18 L=1.8e-07 W=5e-07 AD=1.275e-13 AS=1.275e-13 PD=5.1e-07 PS=5.1e-07 $X=79225 $Y=-166 $D=0
M204 GND 13 16 GND N_18 L=1.8e-07 W=5e-07 AD=1.275e-13 AS=1.275e-13 PD=5.1e-07 PS=5.1e-07 $X=79405 $Y=-7792 $D=0
M205 Vbout 15 GND GND N_18 L=1.8e-07 W=5e-07 AD=1.275e-13 AS=1.275e-13 PD=5.1e-07 PS=5.1e-07 $X=79915 $Y=-166 $D=0
M206 16 13 GND GND N_18 L=1.8e-07 W=5e-07 AD=1.275e-13 AS=1.275e-13 PD=5.1e-07 PS=5.1e-07 $X=80095 $Y=-7792 $D=0
M207 GND 15 Vbout GND N_18 L=1.8e-07 W=5e-07 AD=1.275e-13 AS=1.275e-13 PD=5.1e-07 PS=5.1e-07 $X=80605 $Y=-166 $D=0
M208 GND 13 16 GND N_18 L=1.8e-07 W=5e-07 AD=1.275e-13 AS=1.275e-13 PD=5.1e-07 PS=5.1e-07 $X=80785 $Y=-7792 $D=0
M209 Vbout 15 GND GND N_18 L=1.8e-07 W=5e-07 AD=1.275e-13 AS=1.275e-13 PD=5.1e-07 PS=5.1e-07 $X=81295 $Y=-166 $D=0
M210 16 13 GND GND N_18 L=1.8e-07 W=5e-07 AD=1.275e-13 AS=1.275e-13 PD=5.1e-07 PS=5.1e-07 $X=81475 $Y=-7792 $D=0
M211 GND 15 Vbout GND N_18 L=1.8e-07 W=5e-07 AD=1.275e-13 AS=1.275e-13 PD=5.1e-07 PS=5.1e-07 $X=81985 $Y=-166 $D=0
M212 GND 13 16 GND N_18 L=1.8e-07 W=5e-07 AD=1.275e-13 AS=1.275e-13 PD=5.1e-07 PS=5.1e-07 $X=82165 $Y=-7792 $D=0
M213 Vbout 15 GND GND N_18 L=1.8e-07 W=5e-07 AD=1.275e-13 AS=1.275e-13 PD=5.1e-07 PS=5.1e-07 $X=82675 $Y=-166 $D=0
M214 16 13 GND GND N_18 L=1.8e-07 W=5e-07 AD=1.275e-13 AS=1.275e-13 PD=5.1e-07 PS=5.1e-07 $X=82855 $Y=-7792 $D=0
M215 GND 15 Vbout GND N_18 L=1.8e-07 W=5e-07 AD=1.275e-13 AS=1.275e-13 PD=5.1e-07 PS=5.1e-07 $X=83365 $Y=-166 $D=0
M216 GND 13 16 GND N_18 L=1.8e-07 W=5e-07 AD=1.275e-13 AS=1.275e-13 PD=5.1e-07 PS=5.1e-07 $X=83545 $Y=-7792 $D=0
M217 Vbout 15 GND GND N_18 L=1.8e-07 W=5e-07 AD=1.275e-13 AS=1.275e-13 PD=5.1e-07 PS=5.1e-07 $X=84055 $Y=-166 $D=0
M218 16 13 GND GND N_18 L=1.8e-07 W=5e-07 AD=1.275e-13 AS=1.275e-13 PD=5.1e-07 PS=5.1e-07 $X=84235 $Y=-7792 $D=0
M219 GND 15 Vbout GND N_18 L=1.8e-07 W=5e-07 AD=1.275e-13 AS=1.275e-13 PD=5.1e-07 PS=5.1e-07 $X=84745 $Y=-166 $D=0
M220 GND 13 16 GND N_18 L=1.8e-07 W=5e-07 AD=1.275e-13 AS=1.275e-13 PD=5.1e-07 PS=5.1e-07 $X=84925 $Y=-7792 $D=0
M221 Vbout 15 GND GND N_18 L=1.8e-07 W=5e-07 AD=1.275e-13 AS=1.275e-13 PD=5.1e-07 PS=5.1e-07 $X=85435 $Y=-166 $D=0
M222 16 13 GND GND N_18 L=1.8e-07 W=5e-07 AD=1.275e-13 AS=1.275e-13 PD=5.1e-07 PS=5.1e-07 $X=85615 $Y=-7792 $D=0
M223 GND 15 Vbout GND N_18 L=1.8e-07 W=5e-07 AD=1.275e-13 AS=1.275e-13 PD=5.1e-07 PS=5.1e-07 $X=86125 $Y=-166 $D=0
M224 GND 13 16 GND N_18 L=1.8e-07 W=5e-07 AD=1.275e-13 AS=1.275e-13 PD=5.1e-07 PS=5.1e-07 $X=86305 $Y=-7792 $D=0
M225 Vbout 15 GND GND N_18 L=1.8e-07 W=5e-07 AD=1.275e-13 AS=1.275e-13 PD=5.1e-07 PS=5.1e-07 $X=86815 $Y=-166 $D=0
M226 16 13 GND GND N_18 L=1.8e-07 W=5e-07 AD=1.275e-13 AS=1.275e-13 PD=5.1e-07 PS=5.1e-07 $X=86995 $Y=-7792 $D=0
M227 GND 15 Vbout GND N_18 L=1.8e-07 W=5e-07 AD=1.275e-13 AS=1.275e-13 PD=5.1e-07 PS=5.1e-07 $X=87505 $Y=-166 $D=0
M228 GND 13 16 GND N_18 L=1.8e-07 W=5e-07 AD=1.275e-13 AS=1.275e-13 PD=5.1e-07 PS=5.1e-07 $X=87685 $Y=-7792 $D=0
M229 Vbout 15 GND GND N_18 L=1.8e-07 W=5e-07 AD=1.275e-13 AS=1.275e-13 PD=5.1e-07 PS=5.1e-07 $X=88195 $Y=-166 $D=0
M230 16 13 GND GND N_18 L=1.8e-07 W=5e-07 AD=1.275e-13 AS=1.275e-13 PD=5.1e-07 PS=5.1e-07 $X=88375 $Y=-7792 $D=0
M231 GND 15 Vbout GND N_18 L=1.8e-07 W=5e-07 AD=1.275e-13 AS=1.275e-13 PD=5.1e-07 PS=5.1e-07 $X=88885 $Y=-166 $D=0
M232 GND 13 16 GND N_18 L=1.8e-07 W=5e-07 AD=1.275e-13 AS=1.275e-13 PD=5.1e-07 PS=5.1e-07 $X=89065 $Y=-7792 $D=0
M233 Vbout 15 GND GND N_18 L=1.8e-07 W=5e-07 AD=1.275e-13 AS=1.275e-13 PD=5.1e-07 PS=5.1e-07 $X=89575 $Y=-166 $D=0
M234 16 13 GND GND N_18 L=1.8e-07 W=5e-07 AD=1.275e-13 AS=1.275e-13 PD=5.1e-07 PS=5.1e-07 $X=89755 $Y=-7792 $D=0
M235 GND 15 Vbout GND N_18 L=1.8e-07 W=5e-07 AD=1.275e-13 AS=1.275e-13 PD=5.1e-07 PS=5.1e-07 $X=90265 $Y=-166 $D=0
M236 GND 13 16 GND N_18 L=1.8e-07 W=5e-07 AD=1.275e-13 AS=1.275e-13 PD=5.1e-07 PS=5.1e-07 $X=90445 $Y=-7792 $D=0
M237 Vbout 15 GND GND N_18 L=1.8e-07 W=5e-07 AD=1.275e-13 AS=1.275e-13 PD=5.1e-07 PS=5.1e-07 $X=90955 $Y=-166 $D=0
M238 16 13 GND GND N_18 L=1.8e-07 W=5e-07 AD=1.275e-13 AS=1.275e-13 PD=5.1e-07 PS=5.1e-07 $X=91135 $Y=-7792 $D=0
M239 GND 15 Vbout GND N_18 L=1.8e-07 W=5e-07 AD=1.275e-13 AS=1.275e-13 PD=5.1e-07 PS=5.1e-07 $X=91645 $Y=-166 $D=0
M240 GND 13 16 GND N_18 L=1.8e-07 W=5e-07 AD=1.275e-13 AS=1.275e-13 PD=5.1e-07 PS=5.1e-07 $X=91825 $Y=-7792 $D=0
M241 Vbout 15 GND GND N_18 L=1.8e-07 W=5e-07 AD=1.275e-13 AS=1.275e-13 PD=5.1e-07 PS=5.1e-07 $X=92335 $Y=-166 $D=0
M242 16 13 GND GND N_18 L=1.8e-07 W=5e-07 AD=1.275e-13 AS=1.275e-13 PD=5.1e-07 PS=5.1e-07 $X=92515 $Y=-7792 $D=0
M243 GND 15 Vbout GND N_18 L=1.8e-07 W=5e-07 AD=1.275e-13 AS=1.275e-13 PD=5.1e-07 PS=5.1e-07 $X=93025 $Y=-166 $D=0
M244 GND 13 16 GND N_18 L=1.8e-07 W=5e-07 AD=2.45e-13 AS=1.275e-13 PD=1.48e-06 PS=5.1e-07 $X=93205 $Y=-7792 $D=0
M245 Vbout 15 GND GND N_18 L=1.8e-07 W=5e-07 AD=1.275e-13 AS=1.275e-13 PD=5.1e-07 PS=5.1e-07 $X=93715 $Y=-166 $D=0
M246 GND 15 Vbout GND N_18 L=1.8e-07 W=5e-07 AD=1.275e-13 AS=1.275e-13 PD=5.1e-07 PS=5.1e-07 $X=94405 $Y=-166 $D=0
M247 17 16 GND GND N_18 L=1.8e-07 W=5e-07 AD=1.275e-13 AS=2.45e-13 PD=5.1e-07 PS=1.48e-06 $X=94765 $Y=-7792 $D=0
M248 Vbout 15 GND GND N_18 L=1.8e-07 W=5e-07 AD=1.275e-13 AS=1.275e-13 PD=5.1e-07 PS=5.1e-07 $X=95095 $Y=-166 $D=0
M249 GND 16 17 GND N_18 L=1.8e-07 W=5e-07 AD=1.275e-13 AS=1.275e-13 PD=5.1e-07 PS=5.1e-07 $X=95455 $Y=-7792 $D=0
M250 GND 15 Vbout GND N_18 L=1.8e-07 W=5e-07 AD=1.275e-13 AS=1.275e-13 PD=5.1e-07 PS=5.1e-07 $X=95785 $Y=-166 $D=0
M251 17 16 GND GND N_18 L=1.8e-07 W=5e-07 AD=1.275e-13 AS=1.275e-13 PD=5.1e-07 PS=5.1e-07 $X=96145 $Y=-7792 $D=0
M252 Vbout 15 GND GND N_18 L=1.8e-07 W=5e-07 AD=1.275e-13 AS=1.275e-13 PD=5.1e-07 PS=5.1e-07 $X=96475 $Y=-166 $D=0
M253 GND 16 17 GND N_18 L=1.8e-07 W=5e-07 AD=1.275e-13 AS=1.275e-13 PD=5.1e-07 PS=5.1e-07 $X=96835 $Y=-7792 $D=0
M254 GND 15 Vbout GND N_18 L=1.8e-07 W=5e-07 AD=1.275e-13 AS=1.275e-13 PD=5.1e-07 PS=5.1e-07 $X=97165 $Y=-166 $D=0
M255 17 16 GND GND N_18 L=1.8e-07 W=5e-07 AD=1.275e-13 AS=1.275e-13 PD=5.1e-07 PS=5.1e-07 $X=97525 $Y=-7792 $D=0
M256 Vbout 15 GND GND N_18 L=1.8e-07 W=5e-07 AD=1.275e-13 AS=1.275e-13 PD=5.1e-07 PS=5.1e-07 $X=97855 $Y=-166 $D=0
M257 GND 16 17 GND N_18 L=1.8e-07 W=5e-07 AD=1.275e-13 AS=1.275e-13 PD=5.1e-07 PS=5.1e-07 $X=98215 $Y=-7792 $D=0