* File: top.pex.spi
* Created: Tue Jan 18 17:29:49 2022
* Program "Calibre xRC"
* Version "v2021.1_33.19"
* 
.include "top.pex.spi.pex"
.subckt top  CLK VREF VDD VSS DOUT<0> DOUT<1> A<2> A<5> A<6> A<7> A<8> A<1> A<0>
+ A<3> A<4>
* 
* A<4>	A<4>
* A<3>	A<3>
* A<0>	A<0>
* A<1>	A<1>
* A<8>	A<8>
* A<7>	A<7>
* A<6>	A<6>
* A<5>	A<5>
* A<2>	A<2>
* DOUT<1>	DOUT<1>
* DOUT<0>	DOUT<0>
* VSS	VSS
* VDD	VDD
* VREF	VREF
* CLK	CLK
mXDFF_Timing_control/XI9/XI2/MM5
+ N_XDFF_TIMING_CONTROL/XI9/XI2/NET41_XDFF_Timing_control/XI9/XI2/MM5_d
+ N_CLK_XDFF_Timing_control/XI9/XI2/MM5_g
+ N_VSS_XDFF_Timing_control/XI9/XI2/MM5_s N_VSS_XDFF_Timing_control/XI3/MM0_b
+ N_18 L=6e-07 W=5e-07 AD=2.95e-13 AS=2.45e-13 PD=1.68e-06 PS=1.48e-06
mXDFF_Timing_control/XI9/XI2/MM6
+ N_XDFF_TIMING_CONTROL/XI9/XI2/NET37_XDFF_Timing_control/XI9/XI2/MM6_d
+ N_XDFF_TIMING_CONTROL/XI9/XI2/NET41_XDFF_Timing_control/XI9/XI2/MM6_g
+ N_VSS_XDFF_Timing_control/XI9/XI2/MM6_s N_VSS_XDFF_Timing_control/XI3/MM0_b
+ N_18 L=6e-07 W=5e-07 AD=2.95e-13 AS=2.45e-13 PD=1.68e-06 PS=1.48e-06
mXYDec/XI17/MN N_XYDEC/NET22_XYDec/XI17/MN_d N_Y_SEL_FF<0>_XYDec/XI17/MN_g
+ N_VSS_XYDec/XI17/MN_s N_VSS_XDFF_Timing_control/XI3/MM0_b N_18 L=1.8e-07
+ W=5e-07 AD=2.45e-13 AS=2.45e-13 PD=1.48e-06 PS=1.48e-06
mXDFF_Timing_control/XI9/XI2/MM7
+ N_XDFF_TIMING_CONTROL/XI9/XI2/NET33_XDFF_Timing_control/XI9/XI2/MM7_d
+ N_XDFF_TIMING_CONTROL/XI9/XI2/NET37_XDFF_Timing_control/XI9/XI2/MM7_g
+ N_VSS_XDFF_Timing_control/XI9/XI2/MM7_s N_VSS_XDFF_Timing_control/XI3/MM0_b
+ N_18 L=6e-07 W=5e-07 AD=2.95e-13 AS=2.45e-13 PD=1.68e-06 PS=1.48e-06
mXDFF_Timing_control/XI9/XI2/MM8
+ N_XDFF_TIMING_CONTROL/XI9/NET10_XDFF_Timing_control/XI9/XI2/MM8_d
+ N_XDFF_TIMING_CONTROL/XI9/XI2/NET33_XDFF_Timing_control/XI9/XI2/MM8_g
+ N_VSS_XDFF_Timing_control/XI9/XI2/MM8_s N_VSS_XDFF_Timing_control/XI3/MM0_b
+ N_18 L=6e-07 W=5e-07 AD=2.95e-13 AS=2.45e-13 PD=1.68e-06 PS=1.48e-06
mXYDec/XI18/MN N_XYDEC/NET18_XYDec/XI18/MN_d N_Y_SEL_FF<1>_XYDec/XI18/MN_g
+ N_VSS_XYDec/XI18/MN_s N_VSS_XDFF_Timing_control/XI3/MM0_b N_18 L=1.8e-07
+ W=5e-07 AD=2.45e-13 AS=2.45e-13 PD=1.48e-06 PS=1.48e-06
mXDFF_Timing_control/XI9/MMMa
+ N_XDFF_TIMING_CONTROL/XI9/NET023_XDFF_Timing_control/XI9/MMMa_d
+ N_XDFF_TIMING_CONTROL/XI9/NET10_XDFF_Timing_control/XI9/MMMa_g
+ N_VSS_XDFF_Timing_control/XI9/MMMa_s N_VSS_XDFF_Timing_control/XI3/MM0_b N_18
+ L=1e-06 W=5e-07 AD=2.45e-13 AS=2.45e-13 PD=1.48e-06 PS=1.48e-06
mXYDec/XI19/MN N_XYDEC/NET14_XYDec/XI19/MN_d N_Y_SEL_FF<2>_XYDec/XI19/MN_g
+ N_VSS_XYDec/XI19/MN_s N_VSS_XDFF_Timing_control/XI3/MM0_b N_18 L=1.8e-07
+ W=5e-07 AD=2.45e-13 AS=2.45e-13 PD=1.48e-06 PS=1.48e-06
mXDFF_Timing_control/XI9/MMMc
+ N_XDFF_TIMING_CONTROL/XI9/NET013_XDFF_Timing_control/XI9/MMMc_d
+ N_XDFF_TIMING_CONTROL/XI9/NET023_XDFF_Timing_control/XI9/MMMc_g
+ N_VSS_XDFF_Timing_control/XI9/MMMc_s N_VSS_XDFF_Timing_control/XI3/MM0_b N_18
+ L=1e-06 W=5e-07 AD=2.45e-13 AS=2.45e-13 PD=1.48e-06 PS=1.48e-06
mXDFF_Timing_control/XI9/XI1/XI2/MM5
+ N_XDFF_TIMING_CONTROL/XI9/XI1/XI2/NET41_XDFF_Timing_control/XI9/XI1/XI2/MM5_d
+ N_XDFF_TIMING_CONTROL/XI9/NET013_XDFF_Timing_control/XI9/XI1/XI2/MM5_g
+ N_VSS_XDFF_Timing_control/XI9/XI1/XI2/MM5_s
+ N_VSS_XDFF_Timing_control/XI3/MM0_b N_18 L=6e-07 W=5e-07 AD=2.95e-13
+ AS=2.45e-13 PD=1.68e-06 PS=1.48e-06
mXDFF_Timing_control/XI9/XI0/XI2/MM5
+ N_XDFF_TIMING_CONTROL/XI9/XI0/XI2/NET41_XDFF_Timing_control/XI9/XI0/XI2/MM5_d
+ N_CLK_XDFF_Timing_control/XI9/XI0/XI2/MM5_g
+ N_VSS_XDFF_Timing_control/XI9/XI0/XI2/MM5_s
+ N_VSS_XDFF_Timing_control/XI3/MM0_b N_18 L=6e-07 W=5e-07 AD=2.95e-13
+ AS=2.45e-13 PD=1.68e-06 PS=1.48e-06
mXDFF_Timing_control/XI9/XI1/XI2/MM6
+ N_XDFF_TIMING_CONTROL/XI9/XI1/XI2/NET37_XDFF_Timing_control/XI9/XI1/XI2/MM6_d
+ N_XDFF_TIMING_CONTROL/XI9/XI1/XI2/NET41_XDFF_Timing_control/XI9/XI1/XI2/MM6_g
+ N_VSS_XDFF_Timing_control/XI9/XI1/XI2/MM6_s
+ N_VSS_XDFF_Timing_control/XI3/MM0_b N_18 L=6e-07 W=5e-07 AD=2.95e-13
+ AS=2.45e-13 PD=1.68e-06 PS=1.48e-06
mXDFF_Timing_control/XI9/XI0/XI2/MM6
+ N_XDFF_TIMING_CONTROL/XI9/XI0/XI2/NET37_XDFF_Timing_control/XI9/XI0/XI2/MM6_d
+ N_XDFF_TIMING_CONTROL/XI9/XI0/XI2/NET41_XDFF_Timing_control/XI9/XI0/XI2/MM6_g
+ N_VSS_XDFF_Timing_control/XI9/XI0/XI2/MM6_s
+ N_VSS_XDFF_Timing_control/XI3/MM0_b N_18 L=6e-07 W=5e-07 AD=2.95e-13
+ AS=2.45e-13 PD=1.68e-06 PS=1.48e-06
mXDFF_Timing_control/XI9/XI1/XI2/MM7
+ N_XDFF_TIMING_CONTROL/XI9/XI1/XI2/NET33_XDFF_Timing_control/XI9/XI1/XI2/MM7_d
+ N_XDFF_TIMING_CONTROL/XI9/XI1/XI2/NET37_XDFF_Timing_control/XI9/XI1/XI2/MM7_g
+ N_VSS_XDFF_Timing_control/XI9/XI1/XI2/MM7_s
+ N_VSS_XDFF_Timing_control/XI3/MM0_b N_18 L=6e-07 W=5e-07 AD=2.95e-13
+ AS=2.45e-13 PD=1.68e-06 PS=1.48e-06
mXDFF_Timing_control/XI9/XI0/XI2/MM7
+ N_XDFF_TIMING_CONTROL/XI9/XI0/XI2/NET33_XDFF_Timing_control/XI9/XI0/XI2/MM7_d
+ N_XDFF_TIMING_CONTROL/XI9/XI0/XI2/NET37_XDFF_Timing_control/XI9/XI0/XI2/MM7_g
+ N_VSS_XDFF_Timing_control/XI9/XI0/XI2/MM7_s
+ N_VSS_XDFF_Timing_control/XI3/MM0_b N_18 L=6e-07 W=5e-07 AD=2.95e-13
+ AS=2.45e-13 PD=1.68e-06 PS=1.48e-06
mXDFF_Timing_control/XI9/XI1/XI2/MM8
+ N_XDFF_TIMING_CONTROL/XI9/XI1/NET011_XDFF_Timing_control/XI9/XI1/XI2/MM8_d
+ N_XDFF_TIMING_CONTROL/XI9/XI1/XI2/NET33_XDFF_Timing_control/XI9/XI1/XI2/MM8_g
+ N_VSS_XDFF_Timing_control/XI9/XI1/XI2/MM8_s
+ N_VSS_XDFF_Timing_control/XI3/MM0_b N_18 L=6e-07 W=5e-07 AD=3e-13 AS=2.45e-13
+ PD=1.7e-06 PS=1.48e-06
mXDFF_Timing_control/XI9/XI0/XI2/MM8
+ N_XDFF_TIMING_CONTROL/XI9/XI0/NET011_XDFF_Timing_control/XI9/XI0/XI2/MM8_d
+ N_XDFF_TIMING_CONTROL/XI9/XI0/XI2/NET33_XDFF_Timing_control/XI9/XI0/XI2/MM8_g
+ N_VSS_XDFF_Timing_control/XI9/XI0/XI2/MM8_s
+ N_VSS_XDFF_Timing_control/XI3/MM0_b N_18 L=6e-07 W=5e-07 AD=3e-13 AS=2.45e-13
+ PD=1.7e-06 PS=1.48e-06
mXYDec/XI21/MM3 N_XYDEC/XI21/NET24_XYDec/XI21/MM3_d N_VDD_XYDec/XI21/MM3_g
+ N_VSS_XYDec/XI21/MM3_s N_VSS_XDFF_Timing_control/XI3/MM0_b N_18 L=1.8e-07
+ W=5e-07 AD=1.275e-13 AS=2.45e-13 PD=5.1e-07 PS=1.48e-06
mXYDec/XI22/MM3 N_XYDEC/XI22/NET24_XYDec/XI22/MM3_d N_VDD_XYDec/XI22/MM3_g
+ N_VSS_XYDec/XI22/MM3_s N_VSS_XDFF_Timing_control/XI3/MM0_b N_18 L=1.8e-07
+ W=5e-07 AD=1.275e-13 AS=2.45e-13 PD=5.1e-07 PS=1.48e-06
mXYDec/XI25/MM3 N_XYDEC/XI25/NET24_XYDec/XI25/MM3_d N_VDD_XYDec/XI25/MM3_g
+ N_VSS_XYDec/XI25/MM3_s N_VSS_XDFF_Timing_control/XI3/MM0_b N_18 L=1.8e-07
+ W=5e-07 AD=1.275e-13 AS=2.45e-13 PD=5.1e-07 PS=1.48e-06
mXYDec/XI26/MM3 N_XYDEC/XI26/NET24_XYDec/XI26/MM3_d N_VDD_XYDec/XI26/MM3_g
+ N_VSS_XYDec/XI26/MM3_s N_VSS_XDFF_Timing_control/XI3/MM0_b N_18 L=1.8e-07
+ W=5e-07 AD=1.275e-13 AS=2.45e-13 PD=5.1e-07 PS=1.48e-06
mXYDec/XI21/MM2 N_XYDEC/XI21/NET28_XYDec/XI21/MM2_d
+ N_Y_SEL_FF<2>_XYDec/XI21/MM2_g N_XYDEC/XI21/NET24_XYDec/XI21/MM2_s
+ N_VSS_XDFF_Timing_control/XI3/MM0_b N_18 L=1.8e-07 W=5e-07 AD=1.275e-13
+ AS=1.275e-13 PD=5.1e-07 PS=5.1e-07
mXYDec/XI22/MM2 N_XYDEC/XI22/NET28_XYDec/XI22/MM2_d
+ N_Y_SEL_FF<2>_XYDec/XI22/MM2_g N_XYDEC/XI22/NET24_XYDec/XI22/MM2_s
+ N_VSS_XDFF_Timing_control/XI3/MM0_b N_18 L=1.8e-07 W=5e-07 AD=1.275e-13
+ AS=1.275e-13 PD=5.1e-07 PS=5.1e-07
mXYDec/XI25/MM2 N_XYDEC/XI25/NET28_XYDec/XI25/MM2_d
+ N_XYDEC/NET14_XYDec/XI25/MM2_g N_XYDEC/XI25/NET24_XYDec/XI25/MM2_s
+ N_VSS_XDFF_Timing_control/XI3/MM0_b N_18 L=1.8e-07 W=5e-07 AD=1.275e-13
+ AS=1.275e-13 PD=5.1e-07 PS=5.1e-07
mXYDec/XI26/MM2 N_XYDEC/XI26/NET28_XYDec/XI26/MM2_d
+ N_XYDEC/NET14_XYDec/XI26/MM2_g N_XYDEC/XI26/NET24_XYDec/XI26/MM2_s
+ N_VSS_XDFF_Timing_control/XI3/MM0_b N_18 L=1.8e-07 W=5e-07 AD=1.275e-13
+ AS=1.275e-13 PD=5.1e-07 PS=5.1e-07
mXDFF_Timing_control/XI9/XI1/XI1/MM5
+ N_XDFF_TIMING_CONTROL/XI9/XI1/XI1/NET39_XDFF_Timing_control/XI9/XI1/XI1/MM5_d
+ N_XDFF_TIMING_CONTROL/XI9/XI1/NET011_XDFF_Timing_control/XI9/XI1/XI1/MM5_g
+ N_VSS_XDFF_Timing_control/XI9/XI1/XI1/MM5_s
+ N_VSS_XDFF_Timing_control/XI3/MM0_b N_18 L=1e-06 W=5e-07 AD=2.45e-13
+ AS=2.45e-13 PD=1.48e-06 PS=1.48e-06
mXDFF_Timing_control/XI9/XI0/XI1/MM5
+ N_XDFF_TIMING_CONTROL/XI9/XI0/XI1/NET39_XDFF_Timing_control/XI9/XI0/XI1/MM5_d
+ N_XDFF_TIMING_CONTROL/XI9/XI0/NET011_XDFF_Timing_control/XI9/XI0/XI1/MM5_g
+ N_VSS_XDFF_Timing_control/XI9/XI0/XI1/MM5_s
+ N_VSS_XDFF_Timing_control/XI3/MM0_b N_18 L=1e-06 W=5e-07 AD=2.45e-13
+ AS=2.45e-13 PD=1.48e-06 PS=1.48e-06
mXYDec/XI21/MM1 N_XYDEC/XI21/NET32_XYDec/XI21/MM1_d
+ N_Y_SEL_FF<1>_XYDec/XI21/MM1_g N_XYDEC/XI21/NET28_XYDec/XI21/MM1_s
+ N_VSS_XDFF_Timing_control/XI3/MM0_b N_18 L=1.8e-07 W=5e-07 AD=1.275e-13
+ AS=1.275e-13 PD=5.1e-07 PS=5.1e-07
mXYDec/XI22/MM1 N_XYDEC/XI22/NET32_XYDec/XI22/MM1_d
+ N_XYDEC/NET18_XYDec/XI22/MM1_g N_XYDEC/XI22/NET28_XYDec/XI22/MM1_s
+ N_VSS_XDFF_Timing_control/XI3/MM0_b N_18 L=1.8e-07 W=5e-07 AD=1.275e-13
+ AS=1.275e-13 PD=5.1e-07 PS=5.1e-07
mXYDec/XI25/MM1 N_XYDEC/XI25/NET32_XYDec/XI25/MM1_d
+ N_Y_SEL_FF<1>_XYDec/XI25/MM1_g N_XYDEC/XI25/NET28_XYDec/XI25/MM1_s
+ N_VSS_XDFF_Timing_control/XI3/MM0_b N_18 L=1.8e-07 W=5e-07 AD=1.275e-13
+ AS=1.275e-13 PD=5.1e-07 PS=5.1e-07
mXYDec/XI26/MM1 N_XYDEC/XI26/NET32_XYDec/XI26/MM1_d
+ N_XYDEC/NET18_XYDec/XI26/MM1_g N_XYDEC/XI26/NET28_XYDec/XI26/MM1_s
+ N_VSS_XDFF_Timing_control/XI3/MM0_b N_18 L=1.8e-07 W=5e-07 AD=1.275e-13
+ AS=1.275e-13 PD=5.1e-07 PS=5.1e-07
mXYDec/XI21/MM0 N_Y_SEL<6>_XYDec/XI21/MM0_d N_XYDEC/NET22_XYDec/XI21/MM0_g
+ N_XYDEC/XI21/NET32_XYDec/XI21/MM0_s N_VSS_XDFF_Timing_control/XI3/MM0_b N_18
+ L=1.8e-07 W=5e-07 AD=2.45e-13 AS=1.275e-13 PD=1.48e-06 PS=5.1e-07
mXYDec/XI22/MM0 N_Y_SEL<5>_XYDec/XI22/MM0_d N_Y_SEL_FF<0>_XYDec/XI22/MM0_g
+ N_XYDEC/XI22/NET32_XYDec/XI22/MM0_s N_VSS_XDFF_Timing_control/XI3/MM0_b N_18
+ L=1.8e-07 W=5e-07 AD=2.45e-13 AS=1.275e-13 PD=1.48e-06 PS=5.1e-07
mXYDec/XI25/MM0 N_Y_SEL<2>_XYDec/XI25/MM0_d N_XYDEC/NET22_XYDec/XI25/MM0_g
+ N_XYDEC/XI25/NET32_XYDec/XI25/MM0_s N_VSS_XDFF_Timing_control/XI3/MM0_b N_18
+ L=1.8e-07 W=5e-07 AD=2.45e-13 AS=1.275e-13 PD=1.48e-06 PS=5.1e-07
mXYDec/XI26/MM0 N_Y_SEL<1>_XYDec/XI26/MM0_d N_Y_SEL_FF<0>_XYDec/XI26/MM0_g
+ N_XYDEC/XI26/NET32_XYDec/XI26/MM0_s N_VSS_XDFF_Timing_control/XI3/MM0_b N_18
+ L=1.8e-07 W=5e-07 AD=2.45e-13 AS=1.275e-13 PD=1.48e-06 PS=5.1e-07
mXYDec/XI20/MM3 N_XYDEC/XI20/NET24_XYDec/XI20/MM3_d N_VDD_XYDec/XI20/MM3_g
+ N_VSS_XYDec/XI20/MM3_s N_VSS_XDFF_Timing_control/XI3/MM0_b N_18 L=1.8e-07
+ W=5e-07 AD=1.275e-13 AS=2.45e-13 PD=5.1e-07 PS=1.48e-06
mXYDec/XI23/MM3 N_XYDEC/XI23/NET24_XYDec/XI23/MM3_d N_VDD_XYDec/XI23/MM3_g
+ N_VSS_XYDec/XI23/MM3_s N_VSS_XDFF_Timing_control/XI3/MM0_b N_18 L=1.8e-07
+ W=5e-07 AD=1.275e-13 AS=2.45e-13 PD=5.1e-07 PS=1.48e-06
mXYDec/XI24/MM3 N_XYDEC/XI24/NET24_XYDec/XI24/MM3_d N_VDD_XYDec/XI24/MM3_g
+ N_VSS_XYDec/XI24/MM3_s N_VSS_XDFF_Timing_control/XI3/MM0_b N_18 L=1.8e-07
+ W=5e-07 AD=1.275e-13 AS=2.45e-13 PD=5.1e-07 PS=1.48e-06
mXYDec/XI27/MM3 N_XYDEC/XI27/NET24_XYDec/XI27/MM3_d N_VDD_XYDec/XI27/MM3_g
+ N_VSS_XYDec/XI27/MM3_s N_VSS_XDFF_Timing_control/XI3/MM0_b N_18 L=1.8e-07
+ W=5e-07 AD=1.275e-13 AS=2.45e-13 PD=5.1e-07 PS=1.48e-06
mXDFF_Timing_control/XI9/XI1/XI1/MM6
+ N_XDFF_TIMING_CONTROL/XI9/XI1/XI1/NET15_XDFF_Timing_control/XI9/XI1/XI1/MM6_d
+ N_XDFF_TIMING_CONTROL/XI9/XI1/XI1/NET39_XDFF_Timing_control/XI9/XI1/XI1/MM6_g
+ N_VSS_XDFF_Timing_control/XI9/XI1/XI1/MM6_s
+ N_VSS_XDFF_Timing_control/XI3/MM0_b N_18 L=1e-06 W=5e-07 AD=2.45e-13
+ AS=2.45e-13 PD=1.48e-06 PS=1.48e-06
mXDFF_Timing_control/XI9/XI0/XI1/MM6
+ N_XDFF_TIMING_CONTROL/XI9/XI0/XI1/NET15_XDFF_Timing_control/XI9/XI0/XI1/MM6_d
+ N_XDFF_TIMING_CONTROL/XI9/XI0/XI1/NET39_XDFF_Timing_control/XI9/XI0/XI1/MM6_g
+ N_VSS_XDFF_Timing_control/XI9/XI0/XI1/MM6_s
+ N_VSS_XDFF_Timing_control/XI3/MM0_b N_18 L=1e-06 W=5e-07 AD=2.45e-13
+ AS=2.45e-13 PD=1.48e-06 PS=1.48e-06
mXYDec/XI20/MM2 N_XYDEC/XI20/NET28_XYDec/XI20/MM2_d
+ N_Y_SEL_FF<2>_XYDec/XI20/MM2_g N_XYDEC/XI20/NET24_XYDec/XI20/MM2_s
+ N_VSS_XDFF_Timing_control/XI3/MM0_b N_18 L=1.8e-07 W=5e-07 AD=1.275e-13
+ AS=1.275e-13 PD=5.1e-07 PS=5.1e-07
mXYDec/XI23/MM2 N_XYDEC/XI23/NET28_XYDec/XI23/MM2_d
+ N_Y_SEL_FF<2>_XYDec/XI23/MM2_g N_XYDEC/XI23/NET24_XYDec/XI23/MM2_s
+ N_VSS_XDFF_Timing_control/XI3/MM0_b N_18 L=1.8e-07 W=5e-07 AD=1.275e-13
+ AS=1.275e-13 PD=5.1e-07 PS=5.1e-07
mXYDec/XI24/MM2 N_XYDEC/XI24/NET28_XYDec/XI24/MM2_d
+ N_XYDEC/NET14_XYDec/XI24/MM2_g N_XYDEC/XI24/NET24_XYDec/XI24/MM2_s
+ N_VSS_XDFF_Timing_control/XI3/MM0_b N_18 L=1.8e-07 W=5e-07 AD=1.275e-13
+ AS=1.275e-13 PD=5.1e-07 PS=5.1e-07
mXYDec/XI27/MM2 N_XYDEC/XI27/NET28_XYDec/XI27/MM2_d
+ N_XYDEC/NET14_XYDec/XI27/MM2_g N_XYDEC/XI27/NET24_XYDec/XI27/MM2_s
+ N_VSS_XDFF_Timing_control/XI3/MM0_b N_18 L=1.8e-07 W=5e-07 AD=1.275e-13
+ AS=1.275e-13 PD=5.1e-07 PS=5.1e-07
mXYDec/XI20/MM1 N_XYDEC/XI20/NET32_XYDec/XI20/MM1_d
+ N_Y_SEL_FF<1>_XYDec/XI20/MM1_g N_XYDEC/XI20/NET28_XYDec/XI20/MM1_s
+ N_VSS_XDFF_Timing_control/XI3/MM0_b N_18 L=1.8e-07 W=5e-07 AD=1.275e-13
+ AS=1.275e-13 PD=5.1e-07 PS=5.1e-07
mXYDec/XI23/MM1 N_XYDEC/XI23/NET32_XYDec/XI23/MM1_d
+ N_XYDEC/NET18_XYDec/XI23/MM1_g N_XYDEC/XI23/NET28_XYDec/XI23/MM1_s
+ N_VSS_XDFF_Timing_control/XI3/MM0_b N_18 L=1.8e-07 W=5e-07 AD=1.275e-13
+ AS=1.275e-13 PD=5.1e-07 PS=5.1e-07
mXYDec/XI24/MM1 N_XYDEC/XI24/NET32_XYDec/XI24/MM1_d
+ N_Y_SEL_FF<1>_XYDec/XI24/MM1_g N_XYDEC/XI24/NET28_XYDec/XI24/MM1_s
+ N_VSS_XDFF_Timing_control/XI3/MM0_b N_18 L=1.8e-07 W=5e-07 AD=1.275e-13
+ AS=1.275e-13 PD=5.1e-07 PS=5.1e-07
mXYDec/XI27/MM1 N_XYDEC/XI27/NET32_XYDec/XI27/MM1_d
+ N_XYDEC/NET18_XYDec/XI27/MM1_g N_XYDEC/XI27/NET28_XYDec/XI27/MM1_s
+ N_VSS_XDFF_Timing_control/XI3/MM0_b N_18 L=1.8e-07 W=5e-07 AD=1.275e-13
+ AS=1.275e-13 PD=5.1e-07 PS=5.1e-07
mXYDec/XI20/MM0 N_Y_SEL<7>_XYDec/XI20/MM0_d N_Y_SEL_FF<0>_XYDec/XI20/MM0_g
+ N_XYDEC/XI20/NET32_XYDec/XI20/MM0_s N_VSS_XDFF_Timing_control/XI3/MM0_b N_18
+ L=1.8e-07 W=5e-07 AD=2.45e-13 AS=1.275e-13 PD=1.48e-06 PS=5.1e-07
mXYDec/XI23/MM0 N_Y_SEL<4>_XYDec/XI23/MM0_d N_XYDEC/NET22_XYDec/XI23/MM0_g
+ N_XYDEC/XI23/NET32_XYDec/XI23/MM0_s N_VSS_XDFF_Timing_control/XI3/MM0_b N_18
+ L=1.8e-07 W=5e-07 AD=2.45e-13 AS=1.275e-13 PD=1.48e-06 PS=5.1e-07
mXYDec/XI24/MM0 N_Y_SEL<3>_XYDec/XI24/MM0_d N_Y_SEL_FF<0>_XYDec/XI24/MM0_g
+ N_XYDEC/XI24/NET32_XYDec/XI24/MM0_s N_VSS_XDFF_Timing_control/XI3/MM0_b N_18
+ L=1.8e-07 W=5e-07 AD=2.45e-13 AS=1.275e-13 PD=1.48e-06 PS=5.1e-07
mXYDec/XI27/MM0 N_Y_SEL<0>_XYDec/XI27/MM0_d N_XYDEC/NET22_XYDec/XI27/MM0_g
+ N_XYDEC/XI27/NET32_XYDec/XI27/MM0_s N_VSS_XDFF_Timing_control/XI3/MM0_b N_18
+ L=1.8e-07 W=5e-07 AD=2.45e-13 AS=1.275e-13 PD=1.48e-06 PS=5.1e-07
mXDFF_Timing_control/XI9/XI1/XI1/MM7
+ N_XDFF_TIMING_CONTROL/XI9/XI1/XI1/NET31_XDFF_Timing_control/XI9/XI1/XI1/MM7_d
+ N_XDFF_TIMING_CONTROL/XI9/XI1/XI1/NET15_XDFF_Timing_control/XI9/XI1/XI1/MM7_g
+ N_VSS_XDFF_Timing_control/XI9/XI1/XI1/MM7_s
+ N_VSS_XDFF_Timing_control/XI3/MM0_b N_18 L=1e-06 W=5e-07 AD=2.45e-13
+ AS=2.45e-13 PD=1.48e-06 PS=1.48e-06
mXDFF_Timing_control/XI9/XI0/XI1/MM7
+ N_XDFF_TIMING_CONTROL/XI9/XI0/XI1/NET31_XDFF_Timing_control/XI9/XI0/XI1/MM7_d
+ N_XDFF_TIMING_CONTROL/XI9/XI0/XI1/NET15_XDFF_Timing_control/XI9/XI0/XI1/MM7_g
+ N_VSS_XDFF_Timing_control/XI9/XI0/XI1/MM7_s
+ N_VSS_XDFF_Timing_control/XI3/MM0_b N_18 L=1e-06 W=5e-07 AD=2.45e-13
+ AS=2.45e-13 PD=1.48e-06 PS=1.48e-06
mXDFF_Timing_control/XI9/XI1/XI1/MM8
+ N_XDFF_TIMING_CONTROL/XI9/XI1/XI1/NET27_XDFF_Timing_control/XI9/XI1/XI1/MM8_d
+ N_XDFF_TIMING_CONTROL/XI9/XI1/XI1/NET31_XDFF_Timing_control/XI9/XI1/XI1/MM8_g
+ N_VSS_XDFF_Timing_control/XI9/XI1/XI1/MM8_s
+ N_VSS_XDFF_Timing_control/XI3/MM0_b N_18 L=1e-06 W=5e-07 AD=2.45e-13
+ AS=2.45e-13 PD=1.48e-06 PS=1.48e-06
mXDFF_Timing_control/XI9/XI0/XI1/MM8
+ N_XDFF_TIMING_CONTROL/XI9/XI0/XI1/NET27_XDFF_Timing_control/XI9/XI0/XI1/MM8_d
+ N_XDFF_TIMING_CONTROL/XI9/XI0/XI1/NET31_XDFF_Timing_control/XI9/XI0/XI1/MM8_g
+ N_VSS_XDFF_Timing_control/XI9/XI0/XI1/MM8_s
+ N_VSS_XDFF_Timing_control/XI3/MM0_b N_18 L=1e-06 W=5e-07 AD=2.45e-13
+ AS=2.45e-13 PD=1.48e-06 PS=1.48e-06
mXDFF_Timing_control/MM1 N_XDFF_TIMING_CONTROL/NET28_XDFF_Timing_control/MM1_d
+ N_CLK_XDFF_Timing_control/MM1_g N_VSS_XDFF_Timing_control/MM1_s
+ N_VSS_XDFF_Timing_control/XI3/MM0_b N_18 L=1.8e-07 W=5e-07 AD=2.45e-13
+ AS=2.45e-13 PD=1.48e-06 PS=1.48e-06
mXDFF_Timing_control/XI9/XI1/XI1/MM9
+ N_XDFF_TIMING_CONTROL/XI9/XI1/XI1/NET046_XDFF_Timing_control/XI9/XI1/XI1/MM9_d
+ N_XDFF_TIMING_CONTROL/XI9/XI1/XI1/NET27_XDFF_Timing_control/XI9/XI1/XI1/MM9_g
+ N_VSS_XDFF_Timing_control/XI9/XI1/XI1/MM9_s
+ N_VSS_XDFF_Timing_control/XI3/MM0_b N_18 L=1e-06 W=5e-07 AD=2.45e-13
+ AS=2.45e-13 PD=1.48e-06 PS=1.48e-06
mXDFF_Timing_control/XI9/XI0/XI1/MM9
+ N_XDFF_TIMING_CONTROL/XI9/XI0/XI1/NET046_XDFF_Timing_control/XI9/XI0/XI1/MM9_d
+ N_XDFF_TIMING_CONTROL/XI9/XI0/XI1/NET27_XDFF_Timing_control/XI9/XI0/XI1/MM9_g
+ N_VSS_XDFF_Timing_control/XI9/XI0/XI1/MM9_s
+ N_VSS_XDFF_Timing_control/XI3/MM0_b N_18 L=1e-06 W=5e-07 AD=2.45e-13
+ AS=2.45e-13 PD=1.48e-06 PS=1.48e-06
mXDFF_Timing_control/XI9/XI1/XI1/MMa
+ N_XDFF_TIMING_CONTROL/XI9/XI1/XI1/NET038_XDFF_Timing_control/XI9/XI1/XI1/MMa_d
+ N_XDFF_TIMING_CONTROL/XI9/XI1/XI1/NET046_XDFF_Timing_control/XI9/XI1/XI1/MMa_g
+ N_VSS_XDFF_Timing_control/XI9/XI1/XI1/MMa_s
+ N_VSS_XDFF_Timing_control/XI3/MM0_b N_18 L=1e-06 W=5e-07 AD=2.45e-13
+ AS=2.45e-13 PD=1.48e-06 PS=1.48e-06
mXDFF_Timing_control/XI9/XI0/XI1/MMa
+ N_XDFF_TIMING_CONTROL/XI9/XI0/XI1/NET038_XDFF_Timing_control/XI9/XI0/XI1/MMa_d
+ N_XDFF_TIMING_CONTROL/XI9/XI0/XI1/NET046_XDFF_Timing_control/XI9/XI0/XI1/MMa_g
+ N_VSS_XDFF_Timing_control/XI9/XI0/XI1/MMa_s
+ N_VSS_XDFF_Timing_control/XI3/MM0_b N_18 L=1e-06 W=5e-07 AD=2.45e-13
+ AS=2.45e-13 PD=1.48e-06 PS=1.48e-06
mXDFF_Timing_control/XI9/XI1/XI1/MMc
+ N_XDFF_TIMING_CONTROL/XI9/XI1/XI1/NET034_XDFF_Timing_control/XI9/XI1/XI1/MMc_d
+ N_XDFF_TIMING_CONTROL/XI9/XI1/XI1/NET038_XDFF_Timing_control/XI9/XI1/XI1/MMc_g
+ N_VSS_XDFF_Timing_control/XI9/XI1/XI1/MMc_s
+ N_VSS_XDFF_Timing_control/XI3/MM0_b N_18 L=1e-06 W=5e-07 AD=2.45e-13
+ AS=2.45e-13 PD=1.48e-06 PS=1.48e-06
mXDFF_Timing_control/XI9/XI0/XI1/MMc
+ N_XDFF_TIMING_CONTROL/XI9/XI0/XI1/NET034_XDFF_Timing_control/XI9/XI0/XI1/MMc_d
+ N_XDFF_TIMING_CONTROL/XI9/XI0/XI1/NET038_XDFF_Timing_control/XI9/XI0/XI1/MMc_g
+ N_VSS_XDFF_Timing_control/XI9/XI0/XI1/MMc_s
+ N_VSS_XDFF_Timing_control/XI3/MM0_b N_18 L=1e-06 W=5e-07 AD=2.45e-13
+ AS=2.45e-13 PD=1.48e-06 PS=1.48e-06
mXDFF_Timing_control/XI9/XI1/XI1/MMe
+ N_XDFF_TIMING_CONTROL/XI9/XI1/XI1/NET030_XDFF_Timing_control/XI9/XI1/XI1/MMe_d
+ N_XDFF_TIMING_CONTROL/XI9/XI1/XI1/NET034_XDFF_Timing_control/XI9/XI1/XI1/MMe_g
+ N_VSS_XDFF_Timing_control/XI9/XI1/XI1/MMe_s
+ N_VSS_XDFF_Timing_control/XI3/MM0_b N_18 L=1e-06 W=5e-07 AD=2.45e-13
+ AS=2.45e-13 PD=1.48e-06 PS=1.48e-06
mXDFF_Timing_control/XI9/XI0/XI1/MMe
+ N_XDFF_TIMING_CONTROL/XI9/XI0/XI1/NET030_XDFF_Timing_control/XI9/XI0/XI1/MMe_d
+ N_XDFF_TIMING_CONTROL/XI9/XI0/XI1/NET034_XDFF_Timing_control/XI9/XI0/XI1/MMe_g
+ N_VSS_XDFF_Timing_control/XI9/XI0/XI1/MMe_s
+ N_VSS_XDFF_Timing_control/XI3/MM0_b N_18 L=1e-06 W=5e-07 AD=2.45e-13
+ AS=2.45e-13 PD=1.48e-06 PS=1.48e-06
mXDFF_Timing_control/XI9/XI1/XI1/MMg
+ N_XDFF_TIMING_CONTROL/XI9/XI1/NET6_XDFF_Timing_control/XI9/XI1/XI1/MMg_d
+ N_XDFF_TIMING_CONTROL/XI9/XI1/XI1/NET030_XDFF_Timing_control/XI9/XI1/XI1/MMg_g
+ N_VSS_XDFF_Timing_control/XI9/XI1/XI1/MMg_s
+ N_VSS_XDFF_Timing_control/XI3/MM0_b N_18 L=1e-06 W=5e-07 AD=2.45e-13
+ AS=2.45e-13 PD=1.48e-06 PS=1.48e-06
mXDFF_Timing_control/XI9/XI0/XI1/MMg
+ N_XDFF_TIMING_CONTROL/XI9/XI0/NET6_XDFF_Timing_control/XI9/XI0/XI1/MMg_d
+ N_XDFF_TIMING_CONTROL/XI9/XI0/XI1/NET030_XDFF_Timing_control/XI9/XI0/XI1/MMg_g
+ N_VSS_XDFF_Timing_control/XI9/XI0/XI1/MMg_s
+ N_VSS_XDFF_Timing_control/XI3/MM0_b N_18 L=1e-06 W=5e-07 AD=2.45e-13
+ AS=2.45e-13 PD=1.48e-06 PS=1.48e-06
mXDFF_Timing_control/XI9/XI1/XI0/MM2
+ N_XDFF_TIMING_CONTROL/XI9/XI1/XI0/NET10_XDFF_Timing_control/XI9/XI1/XI0/MM2_d
+ N_XDFF_TIMING_CONTROL/XI9/XI1/NET011_XDFF_Timing_control/XI9/XI1/XI0/MM2_g
+ N_VSS_XDFF_Timing_control/XI9/XI1/XI0/MM2_s
+ N_VSS_XDFF_Timing_control/XI3/MM0_b N_18 L=1.8e-07 W=5.2e-07 AD=1.326e-13
+ AS=2.548e-13 PD=5.1e-07 PS=1.5e-06
mXDFF_Timing_control/XI9/XI0/XI0/MM2
+ N_XDFF_TIMING_CONTROL/XI9/XI0/XI0/NET10_XDFF_Timing_control/XI9/XI0/XI0/MM2_d
+ N_XDFF_TIMING_CONTROL/XI9/XI0/NET011_XDFF_Timing_control/XI9/XI0/XI0/MM2_g
+ N_VSS_XDFF_Timing_control/XI9/XI0/XI0/MM2_s
+ N_VSS_XDFF_Timing_control/XI3/MM0_b N_18 L=1.8e-07 W=5.2e-07 AD=1.326e-13
+ AS=2.548e-13 PD=5.1e-07 PS=1.5e-06
mXDFF_Timing_control/XI9/XI1/XI0/MM3
+ N_XDFF_TIMING_CONTROL/XI9/XI1/XI0/NET055_XDFF_Timing_control/XI9/XI1/XI0/MM3_d
+ N_XDFF_TIMING_CONTROL/XI9/XI1/NET6_XDFF_Timing_control/XI9/XI1/XI0/MM3_g
+ N_XDFF_TIMING_CONTROL/XI9/XI1/XI0/NET10_XDFF_Timing_control/XI9/XI1/XI0/MM3_s
+ N_VSS_XDFF_Timing_control/XI3/MM0_b N_18 L=1.8e-07 W=5.2e-07 AD=2.548e-13
+ AS=1.326e-13 PD=1.5e-06 PS=5.1e-07
mXDFF_Timing_control/XI9/XI0/XI0/MM3
+ N_XDFF_TIMING_CONTROL/XI9/XI0/XI0/NET055_XDFF_Timing_control/XI9/XI0/XI0/MM3_d
+ N_XDFF_TIMING_CONTROL/XI9/XI0/NET6_XDFF_Timing_control/XI9/XI0/XI0/MM3_g
+ N_XDFF_TIMING_CONTROL/XI9/XI0/XI0/NET10_XDFF_Timing_control/XI9/XI0/XI0/MM3_s
+ N_VSS_XDFF_Timing_control/XI3/MM0_b N_18 L=1.8e-07 W=5.2e-07 AD=2.548e-13
+ AS=1.326e-13 PD=1.5e-06 PS=5.1e-07
mXDFF_Timing_control/XI9/XI1/XI0/MM4
+ N_SAEN_XDFF_Timing_control/XI9/XI1/XI0/MM4_d
+ N_XDFF_TIMING_CONTROL/XI9/XI1/XI0/NET055_XDFF_Timing_control/XI9/XI1/XI0/MM4_g
+ N_VSS_XDFF_Timing_control/XI9/XI1/XI0/MM4_s
+ N_VSS_XDFF_Timing_control/XI3/MM0_b N_18 L=1.8e-07 W=5e-07 AD=2.45e-13
+ AS=2.45e-13 PD=1.48e-06 PS=1.48e-06
mXDFF_Timing_control/XI9/XI0/XI0/MM4
+ N_WL_EN_XDFF_Timing_control/XI9/XI0/XI0/MM4_d
+ N_XDFF_TIMING_CONTROL/XI9/XI0/XI0/NET055_XDFF_Timing_control/XI9/XI0/XI0/MM4_g
+ N_VSS_XDFF_Timing_control/XI9/XI0/XI0/MM4_s
+ N_VSS_XDFF_Timing_control/XI3/MM0_b N_18 L=1.8e-07 W=5e-07 AD=2.45e-13
+ AS=2.45e-13 PD=1.48e-06 PS=1.48e-06
mXMUX/XI63/MM1 N_XMUX/NET44_XMUX/XI63/MM1_d N_Y_SEL<7>_XMUX/XI63/MM1_g
+ N_VSS_XMUX/XI63/MM1_s N_VSS_XDFF_Timing_control/XI3/MM0_b N_18 L=1.8e-07
+ W=5e-07 AD=2.45e-13 AS=2.45e-13 PD=1.48e-06 PS=1.48e-06
mXMUX/XI62/MM1 N_XMUX/NET068_XMUX/XI62/MM1_d N_Y_SEL<6>_XMUX/XI62/MM1_g
+ N_VSS_XMUX/XI62/MM1_s N_VSS_XDFF_Timing_control/XI3/MM0_b N_18 L=1.8e-07
+ W=5e-07 AD=2.45e-13 AS=2.45e-13 PD=1.48e-06 PS=1.48e-06
mXMUX/XI61/MM1 N_XMUX/NET106_XMUX/XI61/MM1_d N_Y_SEL<5>_XMUX/XI61/MM1_g
+ N_VSS_XMUX/XI61/MM1_s N_VSS_XDFF_Timing_control/XI3/MM0_b N_18 L=1.8e-07
+ W=5e-07 AD=2.45e-13 AS=2.45e-13 PD=1.48e-06 PS=1.48e-06
mXMUX/XI60/MM1 N_XMUX/NET56_XMUX/XI60/MM1_d N_Y_SEL<4>_XMUX/XI60/MM1_g
+ N_VSS_XMUX/XI60/MM1_s N_VSS_XDFF_Timing_control/XI3/MM0_b N_18 L=1.8e-07
+ W=5e-07 AD=2.45e-13 AS=2.45e-13 PD=1.48e-06 PS=1.48e-06
mXMUX/XI59/MM1 N_XMUX/NET154_XMUX/XI59/MM1_d N_Y_SEL<3>_XMUX/XI59/MM1_g
+ N_VSS_XMUX/XI59/MM1_s N_VSS_XDFF_Timing_control/XI3/MM0_b N_18 L=1.8e-07
+ W=5e-07 AD=2.45e-13 AS=2.45e-13 PD=1.48e-06 PS=1.48e-06
mXMUX/XI58/MM1 N_XMUX/NET130_XMUX/XI58/MM1_d N_Y_SEL<2>_XMUX/XI58/MM1_g
+ N_VSS_XMUX/XI58/MM1_s N_VSS_XDFF_Timing_control/XI3/MM0_b N_18 L=1.8e-07
+ W=5e-07 AD=2.45e-13 AS=2.45e-13 PD=1.48e-06 PS=1.48e-06
mXMUX/XI57/MM1 N_XMUX/NET100_XMUX/XI57/MM1_d N_Y_SEL<1>_XMUX/XI57/MM1_g
+ N_VSS_XMUX/XI57/MM1_s N_VSS_XDFF_Timing_control/XI3/MM0_b N_18 L=1.8e-07
+ W=5e-07 AD=2.45e-13 AS=2.45e-13 PD=1.48e-06 PS=1.48e-06
mXMUX/XI56/MM1 N_XMUX/NET044_XMUX/XI56/MM1_d N_Y_SEL<0>_XMUX/XI56/MM1_g
+ N_VSS_XMUX/XI56/MM1_s N_VSS_XDFF_Timing_control/XI3/MM0_b N_18 L=1.8e-07
+ W=5e-07 AD=2.45e-13 AS=2.45e-13 PD=1.48e-06 PS=1.48e-06
mXSRL/MM23 N_XSRL/CLKB_XSRL/MM23_d N_SAEN_XSRL/MM23_g N_VSS_XSRL/MM23_s
+ N_VSS_XDFF_Timing_control/XI3/MM0_b N_18 L=1.8e-07 W=9.5e-07 AD=4.655e-13
+ AS=4.655e-13 PD=1.93e-06 PS=1.93e-06
mXSA/MM15 N_XSA/NET060_XSA/MM15_d N_DL<0>_XSA/MM15_g N_XSA/NET0108_XSA/MM15_s
+ N_VSS_XDFF_Timing_control/XI3/MM0_b N_18 L=1.8e-07 W=5e-07 AD=1.28e-13
+ AS=2.45e-13 PD=5.12e-07 PS=1.48e-06
mXSA/MM11 N_O0_XSA/MM11_d N_DOUT_SA<0>_XSA/MM11_g N_XSA/NET060_XSA/MM11_s
+ N_VSS_XDFF_Timing_control/XI3/MM0_b N_18 L=1.8e-07 W=5e-07 AD=2.45e-13
+ AS=1.28e-13 PD=1.48e-06 PS=5.12e-07
mXMUX/XI40/MM0 N_BL<0>_XMUX/XI40/MM0_d N_XMUX/NET044_XMUX/XI40/MM0_g
+ N_DL<0>_XMUX/XI40/MM0_s N_VSS_XDFF_Timing_control/XI3/MM0_b N_18 L=1.8e-07
+ W=5e-07 AD=2.45e-13 AS=2.45e-13 PD=1.48e-06 PS=1.48e-06
mXMUX/XI41/MM0 N_BL<1>_XMUX/XI41/MM0_d N_XMUX/NET100_XMUX/XI41/MM0_g
+ N_DL<0>_XMUX/XI41/MM0_s N_VSS_XDFF_Timing_control/XI3/MM0_b N_18 L=1.8e-07
+ W=5e-07 AD=2.45e-13 AS=2.45e-13 PD=1.48e-06 PS=1.48e-06
mXMUX/XI42/MM0 N_BL<2>_XMUX/XI42/MM0_d N_XMUX/NET130_XMUX/XI42/MM0_g
+ N_DL<0>_XMUX/XI42/MM0_s N_VSS_XDFF_Timing_control/XI3/MM0_b N_18 L=1.8e-07
+ W=5e-07 AD=2.45e-13 AS=2.45e-13 PD=1.48e-06 PS=1.48e-06
mXSA/MM19 N_XSA/NET0108_XSA/MM19_d N_SAEN_XSA/MM19_g N_VSS_XSA/MM19_s
+ N_VSS_XDFF_Timing_control/XI3/MM0_b N_18 L=1.8e-07 W=4.7e-07 AD=2.303e-13
+ AS=2.303e-13 PD=1.45e-06 PS=1.45e-06
mXMUX/XI43/MM0 N_BL<3>_XMUX/XI43/MM0_d N_XMUX/NET154_XMUX/XI43/MM0_g
+ N_DL<0>_XMUX/XI43/MM0_s N_VSS_XDFF_Timing_control/XI3/MM0_b N_18 L=1.8e-07
+ W=5e-07 AD=2.45e-13 AS=2.45e-13 PD=1.48e-06 PS=1.48e-06
mXMUX/XI44/MM0 N_BL<4>_XMUX/XI44/MM0_d N_XMUX/NET56_XMUX/XI44/MM0_g
+ N_DL<0>_XMUX/XI44/MM0_s N_VSS_XDFF_Timing_control/XI3/MM0_b N_18 L=1.8e-07
+ W=5e-07 AD=2.45e-13 AS=2.45e-13 PD=1.48e-06 PS=1.48e-06
mXMUX/XI45/MM0 N_BL<5>_XMUX/XI45/MM0_d N_XMUX/NET106_XMUX/XI45/MM0_g
+ N_DL<0>_XMUX/XI45/MM0_s N_VSS_XDFF_Timing_control/XI3/MM0_b N_18 L=1.8e-07
+ W=5e-07 AD=2.45e-13 AS=2.45e-13 PD=1.48e-06 PS=1.48e-06
mXSRL/MM20 N_QB<0>_XSRL/MM20_d N_DOUT<0>_XSRL/MM20_g N_VSS_XSRL/MM20_s
+ N_VSS_XDFF_Timing_control/XI3/MM0_b N_18 L=1.8e-07 W=9.5e-07 AD=4.655e-13
+ AS=4.655e-13 PD=1.93e-06 PS=1.93e-06
mXSRL/MM44 N_DOUT<0>_XSRL/MM44_d N_XSRL/CLKB_XSRL/MM44_g
+ N_XSRL/NET0180_XSRL/MM44_s N_VSS_XDFF_Timing_control/XI3/MM0_b N_18 L=1.8e-07
+ W=9.5e-07 AD=2.4225e-13 AS=4.655e-13 PD=5.1e-07 PS=1.93e-06
mXSRL/MM21 N_XSRL/SA0_XSRL/MM21_d N_SAEN_XSRL/MM21_g N_DOUT<0>_XSRL/MM21_s
+ N_VSS_XDFF_Timing_control/XI3/MM0_b N_18 L=1.8e-07 W=9.5e-07 AD=4.655e-13
+ AS=2.4225e-13 PD=1.93e-06 PS=5.1e-07
mXSRL/MM24 N_XSRL/SA0_XSRL/MM24_d N_XSRL/NET088_XSRL/MM24_g N_VSS_XSRL/MM24_s
+ N_VSS_XDFF_Timing_control/XI3/MM0_b N_18 L=1.8e-07 W=9.5e-07 AD=4.655e-13
+ AS=4.655e-13 PD=1.93e-06 PS=1.93e-06
mXSRL/MM25 N_XSRL/NET088_XSRL/MM25_d N_DOUT_SA<0>_XSRL/MM25_g N_VSS_XSRL/MM25_s
+ N_VSS_XDFF_Timing_control/XI3/MM0_b N_18 L=1.8e-07 W=9.5e-07 AD=4.655e-13
+ AS=4.655e-13 PD=1.93e-06 PS=1.93e-06
mXMUX/XI46/MM0 N_BL<6>_XMUX/XI46/MM0_d N_XMUX/NET068_XMUX/XI46/MM0_g
+ N_DL<0>_XMUX/XI46/MM0_s N_VSS_XDFF_Timing_control/XI3/MM0_b N_18 L=1.8e-07
+ W=5e-07 AD=2.45e-13 AS=2.45e-13 PD=1.48e-06 PS=1.48e-06
mXSA/MM16 N_XSA/NET087_XSA/MM16_d N_VREF_XSA/MM16_g N_XSA/NET0108_XSA/MM16_s
+ N_VSS_XDFF_Timing_control/XI3/MM0_b N_18 L=1.8e-07 W=5e-07 AD=1.28e-13
+ AS=2.45e-13 PD=5.12e-07 PS=1.48e-06
mXSA/MM13 N_DOUT_SA<0>_XSA/MM13_d N_O0_XSA/MM13_g N_XSA/NET087_XSA/MM13_s
+ N_VSS_XDFF_Timing_control/XI3/MM0_b N_18 L=1.8e-07 W=5e-07 AD=2.45e-13
+ AS=1.28e-13 PD=1.48e-06 PS=5.12e-07
mXSRL/MM19 N_XSRL/NET0180_XSRL/MM19_d N_QB<0>_XSRL/MM19_g N_VSS_XSRL/MM19_s
+ N_VSS_XDFF_Timing_control/XI3/MM0_b N_18 L=1.8e-07 W=4.7e-07 AD=2.303e-13
+ AS=2.303e-13 PD=1.45e-06 PS=1.45e-06
mXMUX/XI47/MM0 N_BL<7>_XMUX/XI47/MM0_d N_XMUX/NET44_XMUX/XI47/MM0_g
+ N_DL<0>_XMUX/XI47/MM0_s N_VSS_XDFF_Timing_control/XI3/MM0_b N_18 L=1.8e-07
+ W=5e-07 AD=2.45e-13 AS=2.45e-13 PD=1.48e-06 PS=1.48e-06
mXSA/MM5 N_XSA/NET09_XSA/MM5_d N_DL<1>_XSA/MM5_g N_XSA/NET012_XSA/MM5_s
+ N_VSS_XDFF_Timing_control/XI3/MM0_b N_18 L=1.8e-07 W=5e-07 AD=1.28e-13
+ AS=2.45e-13 PD=5.12e-07 PS=1.48e-06
mXSA/MM1 N_O1_XSA/MM1_d N_DOUT_SA<1>_XSA/MM1_g N_XSA/NET09_XSA/MM1_s
+ N_VSS_XDFF_Timing_control/XI3/MM0_b N_18 L=1.8e-07 W=5e-07 AD=2.45e-13
+ AS=1.28e-13 PD=1.48e-06 PS=5.12e-07
mXMUX/XI55/MM0 N_BL<8>_XMUX/XI55/MM0_d N_XMUX/NET044_XMUX/XI55/MM0_g
+ N_DL<1>_XMUX/XI55/MM0_s N_VSS_XDFF_Timing_control/XI3/MM0_b N_18 L=1.8e-07
+ W=5e-07 AD=2.45e-13 AS=2.45e-13 PD=1.48e-06 PS=1.48e-06
mXSRL/MM56 N_QB<1>_XSRL/MM56_d N_DOUT<1>_XSRL/MM56_g N_VSS_XSRL/MM56_s
+ N_VSS_XDFF_Timing_control/XI3/MM0_b N_18 L=1.8e-07 W=9.5e-07 AD=4.655e-13
+ AS=4.655e-13 PD=1.93e-06 PS=1.93e-06
mXSRL/MM55 N_XSRL/NET0178_XSRL/MM55_d N_QB<1>_XSRL/MM55_g N_VSS_XSRL/MM55_s
+ N_VSS_XDFF_Timing_control/XI3/MM0_b N_18 L=1.8e-07 W=4.7e-07 AD=2.303e-13
+ AS=2.303e-13 PD=1.45e-06 PS=1.45e-06
mXSRL/MM54 N_DOUT<1>_XSRL/MM54_d N_XSRL/CLKB_XSRL/MM54_g
+ N_XSRL/NET0178_XSRL/MM54_s N_VSS_XDFF_Timing_control/XI3/MM0_b N_18 L=1.8e-07
+ W=9.5e-07 AD=2.4225e-13 AS=4.655e-13 PD=5.1e-07 PS=1.93e-06
mXSRL/MM57 N_XSRL/SA1_XSRL/MM57_d N_SAEN_XSRL/MM57_g N_DOUT<1>_XSRL/MM57_s
+ N_VSS_XDFF_Timing_control/XI3/MM0_b N_18 L=1.8e-07 W=9.5e-07 AD=4.655e-13
+ AS=2.4225e-13 PD=1.93e-06 PS=5.1e-07
mXSRL/MM60 N_XSRL/SA1_XSRL/MM60_d N_XSRL/NET0116_XSRL/MM60_g N_VSS_XSRL/MM60_s
+ N_VSS_XDFF_Timing_control/XI3/MM0_b N_18 L=1.8e-07 W=9.5e-07 AD=4.655e-13
+ AS=4.655e-13 PD=1.93e-06 PS=1.93e-06
mXSRL/MM61 N_XSRL/NET0116_XSRL/MM61_d N_DOUT_SA<1>_XSRL/MM61_g N_VSS_XSRL/MM61_s
+ N_VSS_XDFF_Timing_control/XI3/MM0_b N_18 L=1.8e-07 W=9.5e-07 AD=4.655e-13
+ AS=4.655e-13 PD=1.93e-06 PS=1.93e-06
mXMUX/XI51/MM0 N_BL<9>_XMUX/XI51/MM0_d N_XMUX/NET100_XMUX/XI51/MM0_g
+ N_DL<1>_XMUX/XI51/MM0_s N_VSS_XDFF_Timing_control/XI3/MM0_b N_18 L=1.8e-07
+ W=5e-07 AD=2.45e-13 AS=2.45e-13 PD=1.48e-06 PS=1.48e-06
mXMUX/XI49/MM0 N_BL<10>_XMUX/XI49/MM0_d N_XMUX/NET130_XMUX/XI49/MM0_g
+ N_DL<1>_XMUX/XI49/MM0_s N_VSS_XDFF_Timing_control/XI3/MM0_b N_18 L=1.8e-07
+ W=5e-07 AD=2.45e-13 AS=2.45e-13 PD=1.48e-06 PS=1.48e-06
mXSA/MM9 N_XSA/NET012_XSA/MM9_d N_SAEN_XSA/MM9_g N_VSS_XSA/MM9_s
+ N_VSS_XDFF_Timing_control/XI3/MM0_b N_18 L=1.8e-07 W=4.7e-07 AD=2.303e-13
+ AS=2.303e-13 PD=1.45e-06 PS=1.45e-06
mXMUX/XI53/MM0 N_BL<11>_XMUX/XI53/MM0_d N_XMUX/NET154_XMUX/XI53/MM0_g
+ N_DL<1>_XMUX/XI53/MM0_s N_VSS_XDFF_Timing_control/XI3/MM0_b N_18 L=1.8e-07
+ W=5e-07 AD=2.45e-13 AS=2.45e-13 PD=1.48e-06 PS=1.48e-06
mXMUX/XI52/MM0 N_BL<12>_XMUX/XI52/MM0_d N_XMUX/NET56_XMUX/XI52/MM0_g
+ N_DL<1>_XMUX/XI52/MM0_s N_VSS_XDFF_Timing_control/XI3/MM0_b N_18 L=1.8e-07
+ W=5e-07 AD=2.45e-13 AS=2.45e-13 PD=1.48e-06 PS=1.48e-06
mXMUX/XI50/MM0 N_BL<13>_XMUX/XI50/MM0_d N_XMUX/NET106_XMUX/XI50/MM0_g
+ N_DL<1>_XMUX/XI50/MM0_s N_VSS_XDFF_Timing_control/XI3/MM0_b N_18 L=1.8e-07