* File: top.pex.spi.pex
* Created: Tue Jan 18 17:29:49 2022
* Program "Calibre xRC"
* Version "v2021.1_33.19"
* Nominal Temperature: 27C
* Circuit Temperature: 27C
* 
.subckt PM_TOP%XDFF_TIMING_CONTROL/XI3/NET22 8 13 18 23 30 34
c0 48 0 0.0822664f
c1 39 0 0.116417f
c2 34 0 0.128549f
c3 30 0 0.131048f
c4 26 0 0.205311f
c5 23 0 0.0240359f
c6 21 0 0.538409f
c7 16 0 0.222254f
c8 13 0 0.0343369f
c9 7 0 0.0374666f
c10 6 0 0.217274f
r11 47 48 8
r12 44 48 0.252676
r13 43 44 8
r14 39 47 13.2552
r15 36 39 6.2234
r16 32 36 4.73303
r17 32 34 34.85
r18 28 36 4.73303
r19 28 30 35
r20 25 26 16.3327
r21 23 25 3.27857
r22 21 43 0.1876
r23 20 21 16.3327
r24 18 20 4.59
r25 15 16 8.16635
r26 13 15 2.295
r27 11 43 0.2458
r28 10 11 5.44423
r29 8 10 1.53
r30 6 47 0.281392
r31 6 7 0.00758554
r32 5 16 0.1152
r33 5 7 0.029782
r34 4 26 0.1714
r35 4 7 0.029782
.ends

.subckt PM_TOP%XDFF_TIMING_CONTROL/XI3/NET10 4 9 16 20 24 28
c0 48 0 0.104746f
c1 40 0 0.118297f
c2 38 0 0.293874f
c3 33 0 0.113538f
c4 28 0 0.161557f
c5 24 0 0.122764f
c6 20 0 0.12734f
c7 16 0 0.129332f
c8 12 0 0.540572f
r9 47 48 8
r10 44 48 0.252676
r11 43 44 8
r12 38 47 0.32017
r13 37 40 6.2234
r14 37 38 13.2552
r15 33 47 13.2552
r16 30 33 6.2234
r17 26 40 4.73303
r18 26 28 49.85
r19 22 40 4.73303
r20 22 24 35
r21 18 30 4.73303
r22 18 20 34.85
r23 14 30 4.73303
r24 14 16 35
r25 12 43 0.1876
r26 11 12 16.3327
r27 9 11 4.59
r28 7 43 0.2458
r29 6 7 5.44423
r30 4 6 1.53
.ends

.subckt PM_TOP%XDFF_TIMING_CONTROL/XI3/NET71 11 16 21 26 33 38 43 47
c0 73 0 0.127194f
c1 72 0 0.138667f
c2 65 0 0.106282f
c3 56 0 0.124957f
c4 53 0 0.11993f
c5 51 0 0.132865f
c6 47 0 0.140415f
c7 43 0 0.121921f
c8 40 0 0.0265648f
c9 39 0 0.0986402f
c10 38 0 0.127134f
c11 33 0 0.122086f
c12 29 0 0.533187f
c13 24 0 0.221329f
c14 14 0 0.212131f
c15 10 0 0.0400897f
c16 2 0 0.304837f
r17 72 73 8
r18 68 69 8
r19 62 65 6.2234
r20 62 72 13.2552
r21 57 68 0.0814
r22 56 59 6.2234
r23 56 57 13.2552
r24 50 53 6.2234
r25 50 51 13.2552
r26 45 65 4.73303
r27 45 47 49.85
r28 41 65 4.73303
r29 41 43 35
r30 39 59 4.73303
r31 39 40 39.5
r32 36 40 5.02856
r33 36 38 43.5
r34 35 53 4.73303
r35 35 38 49.85
r36 31 53 4.73303
r37 31 33 35
r38 28 29 16.3327
r39 26 28 4.59
r40 23 24 16.3327
r41 21 23 3.27857
r42 19 68 0.1064
r43 19 29 0.3734
r44 18 19 16.3327
r45 16 18 4.59
r46 13 14 8.16635
r47 11 13 2.295
r48 9 51 0.142188
r49 9 10 0.00758554
r50 8 14 0.1152
r51 8 10 0.029782
r52 7 24 0.1714
r53 7 10 0.029782
r54 3 73 0.237157
r55 2 69 0.656408
r56 2 3 0.0363197
.ends

.subckt PM_TOP%XDFF_TIMING_CONTROL/XI3/NET92 10 15 20 25
c0 28 0 0.178251f
c1 25 0 8.42072e-19
c2 23 0 0.122642f
c3 18 0 0.153904f
c4 15 0 0.00120296f
c5 13 0 0.199841f
c6 9 0 0.043289f
c7 6 0 0.0490982f
c8 2 0 0.0523016f
r9 27 28 16.3327
r10 25 27 3.27857
r11 22 23 16.3327
r12 20 22 4.59
r13 17 18 8.16635
r14 15 17 2.295
r15 12 13 5.44423
r16 10 12 1.53
r17 8 18 0.1152
r18 8 9 0.029782
r19 7 28 0.1714
r20 7 9 0.029782
r21 5 13 0.2112
r22 5 6 0.029782
r23 4 23 0.1514
r24 4 6 0.029782
r25 3 6 0.00758554
r26 2 9 0.00758554
r27 2 3 0.103409
.ends

.subckt PM_TOP%XDFF_TIMING_CONTROL/XI3/NET75 7 12 17 22 29 34
c0 44 0 0.125267f
c1 41 0 0.137235f
c2 39 0 0.152662f
c3 36 0 0.0278927f
c4 35 0 0.0986402f
c5 34 0 0.145431f
c6 29 0 0.122471f
c7 25 0 0.545079f
c8 20 0 0.21857f
c9 19 0 8.42072e-19
c10 10 0 0.215336f
c11 9 0 0.00120296f
c12 6 0 0.0444152f
r13 44 47 6.2234
r14 44 45 13.2552
r15 38 41 6.2234
r16 38 39 13.2552
r17 35 47 4.73303
r18 35 36 39.5
r19 32 36 5.02856
r20 32 34 43.5
r21 31 41 4.73303
r22 31 34 49.85
r23 27 41 4.73303
r24 27 29 35
r25 24 25 16.3327
r26 22 24 4.59
r27 19 20 16.3327
r28 17 19 3.27857
r29 15 45 0.1878
r30 15 25 0.3734
r31 14 15 16.3327
r32 12 14 4.59
r33 9 10 8.16635
r34 7 9 2.295
r35 5 39 0.166051
r36 5 6 0.00758554
r37 4 10 0.1152
r38 4 6 0.029782
r39 3 20 0.1714
r40 3 6 0.029782
.ends

.subckt PM_TOP%XDFF_TIMING_CONTROL/XI3/NET60 2 3
c0 5 0 0.178352f
r1 3 5 4.59
r2 2 5 4.59
.ends

.subckt PM_TOP%XDFF_TIMING_CONTROL/XI3/NET23 2 3
c0 5 0 0.167541f
r1 3 5 4.59
r2 2 5 4.59
.ends

.subckt PM_TOP%XDFF_TIMING_CONTROL/XI3/NET56 2 3
c0 5 0 0.178761f
r1 3 5 4.59
r2 2 5 4.59
.ends

.subckt PM_TOP%XDFF_TIMING_CONTROL/XI3/NET12 2 3
c0 5 0 0.171739f
r1 3 5 4.59
r2 2 5 4.59
.ends

.subckt PM_TOP%NOTUSED2 2 7
c0 10 0 0.443523f
c1 9 0 0.00599119f
r2 9 10 16.3327
r3 7 9 4.59
r4 5 10 0.4334
r5 4 5 5.44423
r6 2 4 1.53
.ends

.subckt PM_TOP%XDFF_TIMING_CONTROL/XI6/NET22 8 13 18 23 30 34
c0 48 0 0.0822664f
c1 39 0 0.116417f
c2 34 0 0.128549f
c3 30 0 0.131048f
c4 26 0 0.205311f
c5 23 0 0.0240359f
c6 21 0 0.537994f
c7 16 0 0.222254f
c8 13 0 0.0343369f
c9 7 0 0.0374666f
c10 6 0 0.217274f
r11 47 48 8
r12 44 48 0.252676
r13 43 44 8
r14 39 47 13.2552
r15 36 39 6.2234
r16 32 36 4.73303
r17 32 34 34.85
r18 28 36 4.73303
r19 28 30 35
r20 25 26 16.3327
r21 23 25 3.27857
r22 21 43 0.1876
r23 20 21 16.3327
r24 18 20 4.59
r25 15 16 8.16635
r26 13 15 2.295
r27 11 43 0.2458
r28 10 11 5.44423
r29 8 10 1.53
r30 6 47 0.281392
r31 6 7 0.00758554
r32 5 16 0.1152
r33 5 7 0.029782
r34 4 26 0.1714
r35 4 7 0.029782
.ends

.subckt PM_TOP%XDFF_TIMING_CONTROL/XI6/NET10 4 9 16 20 24 28
c0 48 0 0.104746f
c1 40 0 0.118297f
c2 38 0 0.293874f
c3 33 0 0.113538f
c4 28 0 0.161557f
c5 24 0 0.118402f
c6 20 0 0.12734f
c7 16 0 0.129332f
c8 12 0 0.540572f
r9 47 48 8
r10 44 48 0.252676
r11 43 44 8
r12 38 47 0.32017
r13 37 40 6.2234
r14 37 38 13.2552
r15 33 47 13.2552
r16 30 33 6.2234
r17 26 40 4.73303
r18 26 28 49.85
r19 22 40 4.73303
r20 22 24 35
r21 18 30 4.73303
r22 18 20 34.85
r23 14 30 4.73303
r24 14 16 35
r25 12 43 0.1876
r26 11 12 16.3327
r27 9 11 4.59
r28 7 43 0.2458
r29 6 7 5.44423
r30 4 6 1.53
.ends

.subckt PM_TOP%XDFF_TIMING_CONTROL/XI6/NET71 11 16 21 26 33 38 43 47
c0 73 0 0.141791f
c1 72 0 0.139193f
c2 65 0 0.106282f
c3 56 0 0.124957f
c4 53 0 0.11993f
c5 51 0 0.132865f
c6 47 0 0.140317f
c7 43 0 0.12454f
c8 40 0 0.0265648f
c9 39 0 0.0986402f
c10 38 0 0.127134f
c11 33 0 0.122086f
c12 29 0 0.532979f
c13 24 0 0.221329f
c14 14 0 0.212131f
c15 10 0 0.0400897f
c16 2 0 0.298414f
r17 72 73 8
r18 68 69 8
r19 62 65 6.2234
r20 62 72 13.2552
r21 57 68 0.0814
r22 56 59 6.2234
r23 56 57 13.2552
r24 50 53 6.2234
r25 50 51 13.2552
r26 45 65 4.73303
r27 45 47 49.85
r28 41 65 4.73303
r29 41 43 35
r30 39 59 4.73303
r31 39 40 39.5
r32 36 40 5.02856
r33 36 38 43.5
r34 35 53 4.73303
r35 35 38 49.85
r36 31 53 4.73303
r37 31 33 35
r38 28 29 16.3327
r39 26 28 4.59
r40 23 24 16.3327
r41 21 23 3.27857
r42 19 68 0.1064
r43 19 29 0.3734
r44 18 19 16.3327
r45 16 18 4.59
r46 13 14 8.16635
r47 11 13 2.295
r48 9 51 0.142188
r49 9 10 0.00758554
r50 8 14 0.1152
r51 8 10 0.029782
r52 7 24 0.1714
r53 7 10 0.029782
r54 3 73 0.237157
r55 2 69 0.656408
r56 2 3 0.0363197
.ends

.subckt PM_TOP%XDFF_TIMING_CONTROL/XI6/NET92 10 15 20 25
c0 28 0 0.195025f
c1 25 0 8.42072e-19
c2 23 0 0.129622f
c3 22 0 4.5111e-19
c4 18 0 0.171873f
c5 15 0 0.00120296f
c6 13 0 0.214541f
c7 12 0 0.00135333f
c8 9 0 0.0454659f
c9 6 0 0.0505092f
c10 2 0 0.0654086f
r11 27 28 16.3327
r12 25 27 3.27857
r13 22 23 16.3327
r14 20 22 4.59
r15 17 18 8.16635
r16 15 17 2.295
r17 12 13 5.44423
r18 10 12 1.53
r19 8 18 0.1152
r20 8 9 0.029782
r21 7 28 0.1714
r22 7 9 0.029782
r23 5 13 0.2112
r24 5 6 0.029782
r25 4 23 0.1514
r26 4 6 0.029782
r27 3 6 0.00758554
r28 2 9 0.00758554
r29 2 3 0.103409
.ends

.subckt PM_TOP%XDFF_TIMING_CONTROL/XI6/NET75 7 12 17 22 29 34
c0 44 0 0.125267f
c1 41 0 0.137235f
c2 39 0 0.152662f
c3 36 0 0.0278927f
c4 35 0 0.0986402f
c5 34 0 0.145431f
c6 29 0 0.122471f
c7 25 0 0.545098f
c8 20 0 0.219407f
c9 19 0 8.42072e-19
c10 10 0 0.216058f
c11 9 0 0.00120296f
c12 6 0 0.0446593f
r13 44 47 6.2234
r14 44 45 13.2552
r15 38 41 6.2234
r16 38 39 13.2552
r17 35 47 4.73303
r18 35 36 39.5
r19 32 36 5.02856
r20 32 34 43.5
r21 31 41 4.73303
r22 31 34 49.85
r23 27 41 4.73303
r24 27 29 35
r25 24 25 16.3327
r26 22 24 4.59
r27 19 20 16.3327
r28 17 19 3.27857
r29 15 45 0.1878
r30 15 25 0.3734
r31 14 15 16.3327
r32 12 14 4.59
r33 9 10 8.16635
r34 7 9 2.295
r35 5 39 0.166051
r36 5 6 0.00758554
r37 4 10 0.1152
r38 4 6 0.029782
r39 3 20 0.1714
r40 3 6 0.029782
.ends

.subckt PM_TOP%XDFF_TIMING_CONTROL/XI6/NET60 2 3
c0 5 0 0.178352f
r1 3 5 4.59
r2 2 5 4.59
.ends

.subckt PM_TOP%XDFF_TIMING_CONTROL/XI6/NET23 2 3
c0 5 0 0.167541f
r1 3 5 4.59
r2 2 5 4.59
.ends

.subckt PM_TOP%XDFF_TIMING_CONTROL/XI6/NET56 2 3
c0 5 0 0.178219f
r1 3 5 4.59
r2 2 5 4.59
.ends

.subckt PM_TOP%XDFF_TIMING_CONTROL/XI6/NET12 2 3
c0 5 0 0.171739f
r1 3 5 4.59
r2 2 5 4.59
.ends

.subckt PM_TOP%NOTUSED5 2 7
c0 10 0 0.411574f
c1 9 0 0.00984591f
r2 9 10 16.3327
r3 7 9 4.59
r4 5 10 0.4334
r5 4 5 5.44423
r6 2 4 1.53
.ends

.subckt PM_TOP%XDFF_TIMING_CONTROL/XI1/NET22 8 13 18 23 30 34
c0 48 0 0.0851624f
c1 39 0 0.116158f
c2 34 0 0.127961f
c3 30 0 0.130458f
c4 26 0 0.210546f
c5 21 0 0.535959f
c6 16 0 0.227308f
c7 7 0 0.0400705f
c8 6 0 0.206575f
r9 47 48 8
r10 44 48 0.252676
r11 43 44 8
r12 39 47 13.2552
r13 36 39 6.2234
r14 32 36 4.73303
r15 32 34 34.85
r16 28 36 4.73303
r17 28 30 35
r18 25 26 16.3327
r19 23 25 3.27857
r20 21 43 0.1876
r21 20 21 16.3327
r22 18 20 4.59
r23 15 16 8.16635
r24 13 15 2.295
r25 11 43 0.2458
r26 10 11 5.44423
r27 8 10 1.53
r28 6 47 0.281392
r29 6 7 0.00758554
r30 5 16 0.1152
r31 5 7 0.029782
r32 4 26 0.1714
r33 4 7 0.029782
.ends

.subckt PM_TOP%XDFF_TIMING_CONTROL/XI1/NET10 4 9 16 20 24 28
c0 48 0 0.103349f
c1 40 0 0.118297f
c2 38 0 0.291501f
c3 33 0 0.113538f
c4 28 0 0.161943f
c5 24 0 0.118402f
c6 20 0 0.12734f
c7 16 0 0.129332f
c8 12 0 0.538121f
r9 47 48 8
r10 44 48 0.252676
r11 43 44 8
r12 38 47 0.32017
r13 37 40 6.2234
r14 37 38 13.2552
r15 33 47 13.2552
r16 30 33 6.2234
r17 26 40 4.73303
r18 26 28 49.85
r19 22 40 4.73303
r20 22 24 35
r21 18 30 4.73303
r22 18 20 34.85
r23 14 30 4.73303
r24 14 16 35
r25 12 43 0.1876
r26 11 12 16.3327
r27 9 11 4.59
r28 7 43 0.2458
r29 6 7 5.44423
r30 4 6 1.53
.ends

.subckt PM_TOP%XDFF_TIMING_CONTROL/XI1/NET71 11 16 21 26 33 38 43 47
c0 73 0 0.124291f
c1 72 0 0.139256f
c2 65 0 0.106282f
c3 56 0 0.124957f
c4 53 0 0.11993f
c5 51 0 0.131458f
c6 47 0 0.14061f
c7 43 0 0.126793f
c8 40 0 0.0265648f
c9 39 0 0.0986402f
c10 38 0 0.127134f
c11 33 0 0.122086f
c12 29 0 0.530483f
c13 24 0 0.212551f
c14 14 0 0.204727f
c15 10 0 0.038189f
c16 2 0 0.292506f
r17 72 73 8
r18 68 69 8
r19 62 65 6.2234
r20 62 72 13.2552
r21 57 68 0.0814
r22 56 59 6.2234
r23 56 57 13.2552
r24 50 53 6.2234
r25 50 51 13.2552
r26 45 65 4.73303
r27 45 47 49.85
r28 41 65 4.73303
r29 41 43 35
r30 39 59 4.73303
r31 39 40 39.5
r32 36 40 5.02856
r33 36 38 43.5
r34 35 53 4.73303
r35 35 38 49.85
r36 31 53 4.73303
r37 31 33 35
r38 28 29 16.3327
r39 26 28 4.59
r40 23 24 16.3327
r41 21 23 3.27857
r42 19 68 0.1064
r43 19 29 0.3734
r44 18 19 16.3327
r45 16 18 4.59
r46 13 14 8.16635
r47 11 13 2.295
r48 9 51 0.142188
r49 9 10 0.00758554
r50 8 14 0.1152
r51 8 10 0.029782
r52 7 24 0.1714
r53 7 10 0.029782
r54 3 73 0.237157
r55 2 69 0.656408
r56 2 3 0.0363197
.ends

.subckt PM_TOP%XDFF_TIMING_CONTROL/XI1/NET92 10 15 20 25
c0 28 0 0.178593f
c1 23 0 0.124436f
c2 18 0 0.156408f
c3 13 0 0.214549f
c4 12 0 0.00501137f
c5 9 0 0.0440368f
c6 6 0 0.0506232f
c7 2 0 0.0515569f
r8 27 28 16.3327
r9 25 27 3.27857
r10 22 23 16.3327
r11 20 22 4.59
r12 17 18 8.16635
r13 15 17 2.295
r14 12 13 5.44423
r15 10 12 1.53
r16 8 18 0.1152
r17 8 9 0.029782
r18 7 28 0.1714
r19 7 9 0.029782
r20 5 13 0.2112
r21 5 6 0.029782
r22 4 23 0.1514
r23 4 6 0.029782
r24 3 6 0.00758554
r25 2 9 0.00758554
r26 2 3 0.103409
.ends

.subckt PM_TOP%XDFF_TIMING_CONTROL/XI1/NET75 7 12 17 22 29 34
c0 44 0 0.125267f
c1 41 0 0.137235f
c2 39 0 0.151077f
c3 36 0 0.0278927f
c4 35 0 0.0986402f
c5 34 0 0.145431f
c6 29 0 0.122471f
c7 25 0 0.544486f
c8 20 0 0.217885f
c9 10 0 0.215288f
c10 6 0 0.0399392f
r11 44 47 6.2234
r12 44 45 13.2552
r13 38 41 6.2234
r14 38 39 13.2552
r15 35 47 4.73303
r16 35 36 39.5
r17 32 36 5.02856
r18 32 34 43.5
r19 31 41 4.73303
r20 31 34 49.85
r21 27 41 4.73303
r22 27 29 35
r23 24 25 16.3327
r24 22 24 4.59
r25 19 20 16.3327
r26 17 19 3.27857
r27 15 45 0.1878
r28 15 25 0.3734
r29 14 15 16.3327
r30 12 14 4.59
r31 9 10 8.16635
r32 7 9 2.295
r33 5 39 0.166051
r34 5 6 0.00758554
r35 4 10 0.1152
r36 4 6 0.029782
r37 3 20 0.1714
r38 3 6 0.029782
.ends

.subckt PM_TOP%XDFF_TIMING_CONTROL/XI1/NET60 2 3
c0 5 0 0.175629f
r1 3 5 4.59
r2 2 5 4.59
.ends

.subckt PM_TOP%XDFF_TIMING_CONTROL/XI1/NET23 2 3
c0 5 0 0.167049f
r1 3 5 4.59
r2 2 5 4.59
.ends

.subckt PM_TOP%XDFF_TIMING_CONTROL/XI1/NET56 2 3
c0 5 0 0.175638f
r1 3 5 4.59
r2 2 5 4.59
.ends

.subckt PM_TOP%XDFF_TIMING_CONTROL/XI1/NET12 2 3
c0 5 0 0.171719f
r1 3 5 4.59
r2 2 5 4.59
.ends

.subckt PM_TOP%NOTUSED6 2 7
c0 10 0 0.496228f
c1 9 0 0.0101406f
r2 9 10 16.3327
r3 7 9 4.59
r4 5 10 0.4334
r5 4 5 5.44423
r6 2 4 1.53
.ends

.subckt PM_TOP%XDFF_TIMING_CONTROL/XI0/NET22 8 13 18 23 30 34
c0 48 0 0.118929f
c1 39 0 0.116158f
c2 34 0 0.127961f
c3 30 0 0.130458f
c4 26 0 0.210701f
c5 21 0 0.536033f
c6 16 0 0.227308f
c7 7 0 0.0400705f
c8 6 0 0.206583f
r9 47 48 8
r10 44 48 0.252676
r11 43 44 8
r12 39 47 13.2552
r13 36 39 6.2234
r14 32 36 4.73303
r15 32 34 34.85
r16 28 36 4.73303
r17 28 30 35
r18 25 26 16.3327
r19 23 25 3.27857
r20 21 43 0.1876
r21 20 21 16.3327
r22 18 20 4.59
r23 15 16 8.16635
r24 13 15 2.295
r25 11 43 0.2458
r26 10 11 5.44423
r27 8 10 1.53
r28 6 47 0.281392
r29 6 7 0.00758554
r30 5 16 0.1152
r31 5 7 0.029782
r32 4 26 0.1714
r33 4 7 0.029782
.ends

.subckt PM_TOP%XDFF_TIMING_CONTROL/XI0/NET10 4 9 16 20 24 28
c0 48 0 0.103349f
c1 40 0 0.118297f
c2 38 0 0.291501f
c3 33 0 0.113538f
c4 28 0 0.161915f
c5 24 0 0.118788f
c6 20 0 0.12734f
c7 16 0 0.129332f
c8 12 0 0.538121f
r9 47 48 8
r10 44 48 0.252676
r11 43 44 8
r12 38 47 0.32017
r13 37 40 6.2234
r14 37 38 13.2552
r15 33 47 13.2552
r16 30 33 6.2234
r17 26 40 4.73303
r18 26 28 49.85
r19 22 40 4.73303
r20 22 24 35
r21 18 30 4.73303
r22 18 20 34.85
r23 14 30 4.73303
r24 14 16 35
r25 12 43 0.1876
r26 11 12 16.3327
r27 9 11 4.59
r28 7 43 0.2458
r29 6 7 5.44423
r30 4 6 1.53
.ends

.subckt PM_TOP%XDFF_TIMING_CONTROL/XI0/NET71 11 16 21 26 33 38 43 47
c0 73 0 0.124291f
c1 72 0 0.139406f
c2 65 0 0.106282f
c3 56 0 0.124957f
c4 53 0 0.11993f
c5 51 0 0.131458f
c6 47 0 0.140582f
c7 43 0 0.127179f
c8 40 0 0.0265648f
c9 39 0 0.0986402f
c10 38 0 0.127134f
c11 33 0 0.122086f
c12 29 0 0.530483f
c13 24 0 0.212551f
c14 14 0 0.204727f
c15 10 0 0.038189f
c16 2 0 0.292506f
r17 72 73 8
r18 68 69 8
r19 62 65 6.2234
r20 62 72 13.2552
r21 57 68 0.0814
r22 56 59 6.2234
r23 56 57 13.2552
r24 50 53 6.2234
r25 50 51 13.2552
r26 45 65 4.73303
r27 45 47 49.85
r28 41 65 4.73303
r29 41 43 35
r30 39 59 4.73303
r31 39 40 39.5
r32 36 40 5.02856
r33 36 38 43.5
r34 35 53 4.73303
r35 35 38 49.85
r36 31 53 4.73303
r37 31 33 35
r38 28 29 16.3327
r39 26 28 4.59
r40 23 24 16.3327
r41 21 23 3.27857
r42 19 68 0.1064
r43 19 29 0.3734
r44 18 19 16.3327
r45 16 18 4.59
r46 13 14 8.16635
r47 11 13 2.295
r48 9 51 0.142188
r49 9 10 0.00758554
r50 8 14 0.1152
r51 8 10 0.029782
r52 7 24 0.1714
r53 7 10 0.029782
r54 3 73 0.237157
r55 2 69 0.656408
r56 2 3 0.0363197
.ends

.subckt PM_TOP%XDFF_TIMING_CONTROL/XI0/NET92 10 15 20 25
c0 28 0 0.178747f
c1 23 0 0.127464f
c2 18 0 0.156407f
c3 13 0 0.216177f
c4 12 0 0.00501137f
c5 9 0 0.0440368f
c6 6 0 0.0506232f
c7 2 0 0.0515597f
r8 27 28 16.3327
r9 25 27 3.27857
r10 22 23 16.3327
r11 20 22 4.59
r12 17 18 8.16635
r13 15 17 2.295
r14 12 13 5.44423
r15 10 12 1.53
r16 8 18 0.1152
r17 8 9 0.029782
r18 7 28 0.1714
r19 7 9 0.029782
r20 5 13 0.2112
r21 5 6 0.029782
r22 4 23 0.1514
r23 4 6 0.029782
r24 3 6 0.00758554
r25 2 9 0.00758554
r26 2 3 0.103409
.ends

.subckt PM_TOP%XDFF_TIMING_CONTROL/XI0/NET75 7 12 17 22 29 34
c0 44 0 0.125267f
c1 41 0 0.137235f
c2 39 0 0.151083f
c3 36 0 0.0278927f
c4 35 0 0.0986402f
c5 34 0 0.145431f
c6 29 0 0.122471f
c7 25 0 0.552322f
c8 20 0 0.218039f
c9 10 0 0.215287f
c10 6 0 0.0399392f
r11 44 47 6.2234
r12 44 45 13.2552
r13 38 41 6.2234
r14 38 39 13.2552
r15 35 47 4.73303
r16 35 36 39.5
r17 32 36 5.02856
r18 32 34 43.5
r19 31 41 4.73303
r20 31 34 49.85
r21 27 41 4.73303
r22 27 29 35
r23 24 25 16.3327
r24 22 24 4.59
r25 19 20 16.3327
r26 17 19 3.27857
r27 15 45 0.1878
r28 15 25 0.3734
r29 14 15 16.3327
r30 12 14 4.59
r31 9 10 8.16635
r32 7 9 2.295
r33 5 39 0.166051
r34 5 6 0.00758554
r35 4 10 0.1152
r36 4 6 0.029782
r37 3 20 0.1714
r38 3 6 0.029782
.ends

.subckt PM_TOP%XDFF_TIMING_CONTROL/XI0/NET60 2 3
c0 5 0 0.175736f
r1 3 5 4.59
r2 2 5 4.59
.ends

.subckt PM_TOP%XDFF_TIMING_CONTROL/XI0/NET23 2 3
c0 5 0 0.167049f
r1 3 5 4.59
r2 2 5 4.59
.ends

.subckt PM_TOP%XDFF_TIMING_CONTROL/XI0/NET56 2 3
c0 5 0 0.175638f
r1 3 5 4.59
r2 2 5 4.59
.ends

.subckt PM_TOP%XDFF_TIMING_CONTROL/XI0/NET12 2 3
c0 5 0 0.171719f
r1 3 5 4.59
r2 2 5 4.59
.ends

.subckt PM_TOP%NOTUSED7 2 7
c0 10 0 0.498047f
c1 9 0 0.0101406f
r2 9 10 16.3327
r3 7 9 4.59
r4 5 10 0.4334
r5 4 5 5.44423
r6 2 4 1.53
.ends

.subckt PM_TOP%XDFF_TIMING_CONTROL/XI8/NET22 8 13 18 23 30 34
c0 48 0 0.122188f
c1 39 0 0.116158f
c2 34 0 0.127961f
c3 30 0 0.130458f
c4 26 0 0.21066f
c5 21 0 0.536481f
c6 16 0 0.227308f
c7 7 0 0.0400705f
c8 6 0 0.206584f
r9 47 48 8
r10 44 48 0.252676
r11 43 44 8
r12 39 47 13.2552
r13 36 39 6.2234
r14 32 36 4.73303
r15 32 34 34.85
r16 28 36 4.73303
r17 28 30 35
r18 25 26 16.3327
r19 23 25 3.27857
r20 21 43 0.1876
r21 20 21 16.3327
r22 18 20 4.59
r23 15 16 8.16635
r24 13 15 2.295
r25 11 43 0.2458
r26 10 11 5.44423
r27 8 10 1.53
r28 6 47 0.281392
r29 6 7 0.00758554
r30 5 16 0.1152
r31 5 7 0.029782
r32 4 26 0.1714
r33 4 7 0.029782
.ends

.subckt PM_TOP%XDFF_TIMING_CONTROL/XI8/NET10 4 9 16 20 24 28
c0 48 0 0.103349f
c1 40 0 0.118297f
c2 38 0 0.291501f
c3 33 0 0.113538f
c4 28 0 0.160951f
c5 24 0 0.11876f
c6 20 0 0.12734f
c7 16 0 0.129332f
c8 12 0 0.53814f
r9 47 48 8
r10 44 48 0.252676
r11 43 44 8
r12 38 47 0.32017
r13 37 40 6.2234
r14 37 38 13.2552
r15 33 47 13.2552
r16 30 33 6.2234
r17 26 40 4.73303
r18 26 28 49.85
r19 22 40 4.73303
r20 22 24 35
r21 18 30 4.73303
r22 18 20 34.85
r23 14 30 4.73303
r24 14 16 35
r25 12 43 0.1876
r26 11 12 16.3327
r27 9 11 4.59
r28 7 43 0.2458
r29 6 7 5.44423
r30 4 6 1.53
.ends

.subckt PM_TOP%XDFF_TIMING_CONTROL/XI8/NET71 11 16 21 26 33 38 43 47
c0 73 0 0.124312f
c1 72 0 0.139794f
c2 65 0 0.106282f
c3 56 0 0.124957f
c4 53 0 0.11993f
c5 51 0 0.131458f
c6 47 0 0.140735f
c7 43 0 0.126557f
c8 40 0 0.0265648f
c9 39 0 0.0986402f
c10 38 0 0.127134f
c11 33 0 0.122086f
c12 29 0 0.530513f
c13 24 0 0.212551f
c14 14 0 0.204731f
c15 10 0 0.038189f
c16 2 0 0.367644f
r17 72 73 8
r18 68 69 8
r19 62 65 6.2234
r20 62 72 13.2552
r21 57 68 0.0814
r22 56 59 6.2234
r23 56 57 13.2552
r24 50 53 6.2234
r25 50 51 13.2552
r26 45 65 4.73303
r27 45 47 49.85
r28 41 65 4.73303
r29 41 43 35
r30 39 59 4.73303
r31 39 40 39.5
r32 36 40 5.02856
r33 36 38 43.5
r34 35 53 4.73303
r35 35 38 49.85
r36 31 53 4.73303
r37 31 33 35
r38 28 29 16.3327
r39 26 28 4.59
r40 23 24 16.3327
r41 21 23 3.27857
r42 19 68 0.1064
r43 19 29 0.3734
r44 18 19 16.3327
r45 16 18 4.59
r46 13 14 8.16635
r47 11 13 2.295
r48 9 51 0.142188
r49 9 10 0.00758554
r50 8 14 0.1152
r51 8 10 0.029782
r52 7 24 0.1714
r53 7 10 0.029782
r54 3 73 0.237157
r55 2 69 0.656408
r56 2 3 0.0363197
.ends

.subckt PM_TOP%XDFF_TIMING_CONTROL/XI8/NET92 10 15 20 25
c0 28 0 0.178706f
c1 23 0 0.127444f
c2 18 0 0.156404f
c3 13 0 0.216645f
c4 12 0 0.00501137f
c5 9 0 0.0440368f
c6 6 0 0.0506232f
c7 2 0 0.0515589f
r8 27 28 16.3327
r9 25 27 3.27857
r10 22 23 16.3327
r11 20 22 4.59
r12 17 18 8.16635
r13 15 17 2.295
r14 12 13 5.44423
r15 10 12 1.53
r16 8 18 0.1152
r17 8 9 0.029782
r18 7 28 0.1714
r19 7 9 0.029782
r20 5 13 0.2112
r21 5 6 0.029782
r22 4 23 0.1514
r23 4 6 0.029782
r24 3 6 0.00758554
r25 2 9 0.00758554
r26 2 3 0.103409
.ends

.subckt PM_TOP%XDFF_TIMING_CONTROL/XI8/NET75 7 12 17 22 29 34
c0 44 0 0.125267f
c1 41 0 0.137235f
c2 39 0 0.151083f
c3 36 0 0.0278927f
c4 35 0 0.0986402f
c5 34 0 0.145431f
c6 29 0 0.122471f
c7 25 0 0.552627f
c8 20 0 0.217998f
c9 10 0 0.215347f
c10 6 0 0.0399392f
r11 44 47 6.2234
r12 44 45 13.2552
r13 38 41 6.2234
r14 38 39 13.2552
r15 35 47 4.73303
r16 35 36 39.5
r17 32 36 5.02856
r18 32 34 43.5
r19 31 41 4.73303
r20 31 34 49.85
r21 27 41 4.73303
r22 27 29 35
r23 24 25 16.3327
r24 22 24 4.59
r25 19 20 16.3327
r26 17 19 3.27857
r27 15 45 0.1878
r28 15 25 0.3734
r29 14 15 16.3327
r30 12 14 4.59
r31 9 10 8.16635
r32 7 9 2.295
r33 5 39 0.166051
r34 5 6 0.00758554
r35 4 10 0.1152
r36 4 6 0.029782
r37 3 20 0.1714
r38 3 6 0.029782
.ends

.subckt PM_TOP%XDFF_TIMING_CONTROL/XI8/NET60 2 3
c0 5 0 0.175707f
r1 3 5 4.59
r2 2 5 4.59
.ends

.subckt PM_TOP%XDFF_TIMING_CONTROL/XI8/NET23 2 3
c0 5 0 0.167087f
r1 3 5 4.59
r2 2 5 4.59
.ends

.subckt PM_TOP%XDFF_TIMING_CONTROL/XI8/NET56 2 3
c0 5 0 0.175638f
r1 3 5 4.59
r2 2 5 4.59
.ends

.subckt PM_TOP%XDFF_TIMING_CONTROL/XI8/NET12 2 3
c0 5 0 0.171719f
r1 3 5 4.59
r2 2 5 4.59
.ends

.subckt PM_TOP%NOTUSED8 2 7
c0 10 0 0.412952f
c1 9 0 0.0101406f
r2 9 10 16.3327
r3 7 9 4.59
r4 5 10 0.4334
r5 4 5 5.44423
r6 2 4 1.53
.ends

.subckt PM_TOP%XDFF_TIMING_CONTROL/XI2/NET22 8 13 18 23 30 34
c0 48 0 0.123703f
c1 39 0 0.115917f
c2 34 0 0.130384f
c3 30 0 0.131048f
c4 26 0 0.205311f
c5 23 0 0.0240359f
c6 21 0 0.543618f
c7 16 0 0.222254f
c8 13 0 0.0343369f
c9 7 0 0.0374666f
c10 6 0 0.21915f
r11 47 48 8
r12 44 48 0.252676
r13 43 44 8
r14 39 47 13.2552
r15 36 39 6.2234
r16 32 36 4.73303
r17 32 34 34.85
r18 28 36 4.73303
r19 28 30 35
r20 25 26 16.3327
r21 23 25 3.27857
r22 21 43 0.1876
r23 20 21 16.3327
r24 18 20 4.59
r25 15 16 8.16635
r26 13 15 2.295
r27 11 43 0.2458
r28 10 11 5.44423
r29 8 10 1.53
r30 6 47 0.281392
r31 6 7 0.00758554
r32 5 16 0.1152
r33 5 7 0.029782
r34 4 26 0.1714
r35 4 7 0.029782
.ends

.subckt PM_TOP%XDFF_TIMING_CONTROL/XI2/NET10 4 9 16 20 24 28
c0 48 0 0.134794f
c1 40 0 0.120201f
c2 38 0 0.302198f
c3 33 0 0.113114f
c4 28 0 0.16436f
c5 24 0 0.118402f
c6 20 0 0.129317f
c7 16 0 0.129332f
c8 12 0 0.546637f
r9 47 48 8
r10 44 48 0.252676
r11 43 44 8
r12 38 47 0.32017
r13 37 40 6.2234
r14 37 38 13.2552
r15 33 47 13.2552
r16 30 33 6.2234
r17 26 40 4.73303
r18 26 28 49.85
r19 22 40 4.73303
r20 22 24 35
r21 18 30 4.73303
r22 18 20 34.85
r23 14 30 4.73303
r24 14 16 35
r25 12 43 0.1876
r26 11 12 16.3327
r27 9 11 4.59
r28 7 43 0.2458
r29 6 7 5.44423
r30 4 6 1.53
.ends

.subckt PM_TOP%XDFF_TIMING_CONTROL/XI2/NET71 11 16 21 26 33 38 43 47
c0 73 0 0.165038f
c1 72 0 0.140785f
c2 65 0 0.110127f
c3 56 0 0.126125f
c4 53 0 0.121803f
c5 51 0 0.13917f
c6 47 0 0.142921f
c7 43 0 0.124041f
c8 40 0 0.0265648f
c9 39 0 0.100575f
c10 38 0 0.129542f
c11 33 0 0.122086f
c12 29 0 0.540951f
c13 24 0 0.21937f
c14 14 0 0.21736f
c15 10 0 0.0453789f
c16 2 0 0.307226f
r17 72 73 8
r18 68 69 8
r19 62 65 6.2234
r20 62 72 13.2552
r21 57 68 0.0814
r22 56 59 6.2234
r23 56 57 13.2552
r24 50 53 6.2234
r25 50 51 13.2552
r26 45 65 4.73303
r27 45 47 49.85
r28 41 65 4.73303
r29 41 43 35
r30 39 59 4.73303
r31 39 40 39.5
r32 36 40 5.02856
r33 36 38 43.5
r34 35 53 4.73303
r35 35 38 49.85
r36 31 53 4.73303
r37 31 33 35
r38 28 29 16.3327
r39 26 28 4.59
r40 23 24 16.3327
r41 21 23 3.27857
r42 19 68 0.1064
r43 19 29 0.3734
r44 18 19 16.3327
r45 16 18 4.59
r46 13 14 8.16635
r47 11 13 2.295
r48 9 51 0.142188
r49 9 10 0.00758554
r50 8 14 0.1152
r51 8 10 0.029782
r52 7 24 0.1714
r53 7 10 0.029782
r54 3 73 0.237157
r55 2 69 0.656408
r56 2 3 0.0363197
.ends

.subckt PM_TOP%XDFF_TIMING_CONTROL/XI2/NET92 10 15 20 25
c0 28 0 0.176655f
c1 25 0 8.42072e-19
c2 23 0 0.121081f
c3 18 0 0.161537f
c4 15 0 0.00120296f
c5 13 0 0.206351f
c6 9 0 0.0539567f
c7 6 0 0.054048f
c8 2 0 0.0527693f
r9 27 28 16.3327
r10 25 27 3.27857
r11 22 23 16.3327
r12 20 22 4.59
r13 17 18 8.16635
r14 15 17 2.295
r15 12 13 5.44423
r16 10 12 1.53
r17 8 18 0.1152
r18 8 9 0.029782
r19 7 28 0.1714
r20 7 9 0.029782
r21 5 13 0.2112
r22 5 6 0.029782
r23 4 23 0.1514
r24 4 6 0.029782
r25 3 6 0.00758554
r26 2 9 0.00758554
r27 2 3 0.103409
.ends

.subckt PM_TOP%XDFF_TIMING_CONTROL/XI2/NET75 7 12 17 22 29 34
c0 44 0 0.125662f
c1 41 0 0.13899f
c2 39 0 0.159149f
c3 36 0 0.0278927f
c4 35 0 0.0996372f
c5 34 0 0.147813f
c6 29 0 0.122471f
c7 25 0 0.548818f
c8 20 0 0.216975f
c9 19 0 8.42072e-19
c10 10 0 0.222809f
c11 9 0 0.00120296f
c12 6 0 0.0495306f
r13 44 47 6.2234
r14 44 45 13.2552
r15 38 41 6.2234
r16 38 39 13.2552
r17 35 47 4.73303
r18 35 36 39.5
r19 32 36 5.02856
r20 32 34 43.5
r21 31 41 4.73303
r22 31 34 49.85
r23 27 41 4.73303
r24 27 29 35
r25 24 25 16.3327
r26 22 24 4.59
r27 19 20 16.3327
r28 17 19 3.27857
r29 15 45 0.1878
r30 15 25 0.3734
r31 14 15 16.3327
r32 12 14 4.59
r33 9 10 8.16635
r34 7 9 2.295
r35 5 39 0.166051
r36 5 6 0.00758554
r37 4 10 0.1152
r38 4 6 0.029782
r39 3 20 0.1714
r40 3 6 0.029782
.ends

.subckt PM_TOP%XDFF_TIMING_CONTROL/XI2/NET60 2 3
c0 5 0 0.176301f
r1 3 5 4.59
r2 2 5 4.59
.ends

.subckt PM_TOP%XDFF_TIMING_CONTROL/XI2/NET23 2 3
c0 5 0 0.170438f
r1 3 5 4.59
r2 2 5 4.59
.ends

.subckt PM_TOP%XDFF_TIMING_CONTROL/XI2/NET56 2 3
c0 5 0 0.176168f
r1 3 5 4.59
r2 2 5 4.59
.ends

.subckt PM_TOP%XDFF_TIMING_CONTROL/XI2/NET12 2 3
c0 5 0 0.175449f
r1 3 5 4.59
r2 2 5 4.59
.ends

.subckt PM_TOP%NOTUSED1 2 7
c0 10 0 0.429631f
c1 9 0 0.00984591f
r2 9 10 16.3327
r3 7 9 4.59
r4 5 10 0.4334
r5 4 5 5.44423
r6 2 4 1.53
.ends

.subckt PM_TOP%XDFF_TIMING_CONTROL/XI7/NET22 8 13 18 23 30 34
c0 48 0 0.149444f
c1 39 0 0.115917f
c2 34 0 0.130384f
c3 30 0 0.131048f
c4 26 0 0.205311f
c5 23 0 0.0240359f
c6 21 0 0.544199f
c7 16 0 0.222254f
c8 13 0 0.0343369f
c9 7 0 0.0374666f
c10 6 0 0.217745f
r11 47 48 8
r12 44 48 0.252676
r13 43 44 8
r14 39 47 13.2552
r15 36 39 6.2234
r16 32 36 4.73303
r17 32 34 34.85
r18 28 36 4.73303
r19 28 30 35
r20 25 26 16.3327
r21 23 25 3.27857
r22 21 43 0.1876
r23 20 21 16.3327
r24 18 20 4.59
r25 15 16 8.16635
r26 13 15 2.295
r27 11 43 0.2458
r28 10 11 5.44423
r29 8 10 1.53
r30 6 47 0.281392
r31 6 7 0.00758554
r32 5 16 0.1152
r33 5 7 0.029782
r34 4 26 0.1714
r35 4 7 0.029782
.ends

.subckt PM_TOP%XDFF_TIMING_CONTROL/XI7/NET10 4 9 16 20 24 28
c0 48 0 0.160534f
c1 40 0 0.119557f
c2 38 0 0.300049f
c3 33 0 0.113114f
c4 28 0 0.164045f
c5 24 0 0.118402f
c6 20 0 0.129294f
c7 16 0 0.129332f
c8 12 0 0.546362f
r9 47 48 8
r10 44 48 0.252676
r11 43 44 8
r12 38 47 0.32017
r13 37 40 6.2234
r14 37 38 13.2552
r15 33 47 13.2552
r16 30 33 6.2234
r17 26 40 4.73303
r18 26 28 49.85
r19 22 40 4.73303
r20 22 24 35
r21 18 30 4.73303
r22 18 20 34.85
r23 14 30 4.73303
r24 14 16 35
r25 12 43 0.1876
r26 11 12 16.3327
r27 9 11 4.59
r28 7 43 0.2458
r29 6 7 5.44423
r30 4 6 1.53
.ends

.subckt PM_TOP%XDFF_TIMING_CONTROL/XI7/NET71 11 16 21 26 33 38 43 47
c0 73 0 0.156048f
c1 72 0 0.140186f
c2 65 0 0.110082f
c3 56 0 0.125154f
c4 53 0 0.12116f
c5 51 0 0.13799f
c6 47 0 0.14253f
c7 43 0 0.12498f
c8 40 0 0.0265648f
c9 39 0 0.0996372f
c10 38 0 0.129542f
c11 33 0 0.122086f
c12 29 0 0.535626f
c13 24 0 0.220111f
c14 14 0 0.21736f
c15 10 0 0.043766f
c16 2 0 0.293891f
r17 72 73 8
r18 68 69 8
r19 62 65 6.2234
r20 62 72 13.2552
r21 57 68 0.0814
r22 56 59 6.2234
r23 56 57 13.2552
r24 50 53 6.2234
r25 50 51 13.2552
r26 45 65 4.73303
r27 45 47 49.85
r28 41 65 4.73303
r29 41 43 35
r30 39 59 4.73303
r31 39 40 39.5
r32 36 40 5.02856
r33 36 38 43.5
r34 35 53 4.73303
r35 35 38 49.85
r36 31 53 4.73303
r37 31 33 35
r38 28 29 16.3327
r39 26 28 4.59
r40 23 24 16.3327
r41 21 23 3.27857
r42 19 68 0.1064
r43 19 29 0.3734
r44 18 19 16.3327
r45 16 18 4.59
r46 13 14 8.16635
r47 11 13 2.295
r48 9 51 0.142188
r49 9 10 0.00758554
r50 8 14 0.1152
r51 8 10 0.029782
r52 7 24 0.1714
r53 7 10 0.029782
r54 3 73 0.237157
r55 2 69 0.656408
r56 2 3 0.0363197
.ends

.subckt PM_TOP%XDFF_TIMING_CONTROL/XI7/NET92 10 15 20 25
c0 28 0 0.177258f
c1 25 0 8.42072e-19
c2 23 0 0.121662f
c3 18 0 0.161537f
c4 15 0 0.00120296f
c5 13 0 0.206351f
c6 9 0 0.0526433f
c7 6 0 0.0525423f
c8 2 0 0.0521252f
r9 27 28 16.3327
r10 25 27 3.27857
r11 22 23 16.3327
r12 20 22 4.59
r13 17 18 8.16635
r14 15 17 2.295
r15 12 13 5.44423
r16 10 12 1.53
r17 8 18 0.1152
r18 8 9 0.029782
r19 7 28 0.1714
r20 7 9 0.029782
r21 5 13 0.2112
r22 5 6 0.029782
r23 4 23 0.1514
r24 4 6 0.029782
r25 3 6 0.00758554
r26 2 9 0.00758554
r27 2 3 0.103409
.ends

.subckt PM_TOP%XDFF_TIMING_CONTROL/XI7/NET75 7 12 17 22 29 34
c0 44 0 0.125662f
c1 41 0 0.138347f
c2 39 0 0.15782f
c3 36 0 0.0278927f
c4 35 0 0.0996372f
c5 34 0 0.147813f
c6 29 0 0.122471f
c7 25 0 0.549399f
c8 20 0 0.217579f
c9 19 0 8.42072e-19
c10 10 0 0.222809f
c11 9 0 0.00120296f
c12 6 0 0.0482172f
r13 44 47 6.2234
r14 44 45 13.2552
r15 38 41 6.2234
r16 38 39 13.2552
r17 35 47 4.73303
r18 35 36 39.5
r19 32 36 5.02856
r20 32 34 43.5
r21 31 41 4.73303
r22 31 34 49.85
r23 27 41 4.73303
r24 27 29 35
r25 24 25 16.3327
r26 22 24 4.59
r27 19 20 16.3327
r28 17 19 3.27857
r29 15 45 0.1878
r30 15 25 0.3734
r31 14 15 16.3327
r32 12 14 4.59
r33 9 10 8.16635
r34 7 9 2.295
r35 5 39 0.166051
r36 5 6 0.00758554
r37 4 10 0.1152
r38 4 6 0.029782
r39 3 20 0.1714
r40 3 6 0.029782
.ends

.subckt PM_TOP%XDFF_TIMING_CONTROL/XI7/NET60 2 3
c0 5 0 0.177147f
r1 3 5 4.59
r2 2 5 4.59
.ends

.subckt PM_TOP%XDFF_TIMING_CONTROL/XI7/NET23 2 3
c0 5 0 0.170438f
r1 3 5 4.59
r2 2 5 4.59
.ends

.subckt PM_TOP%XDFF_TIMING_CONTROL/XI7/NET56 2 3
c0 5 0 0.177014f
r1 3 5 4.59
r2 2 5 4.59
.ends

.subckt PM_TOP%XDFF_TIMING_CONTROL/XI7/NET12 2 3
c0 5 0 0.174973f
r1 3 5 4.59
r2 2 5 4.59
.ends

.subckt PM_TOP%NOTUSED0 2 7
c0 10 0 0.423503f
c1 9 0 0.00984591f
r2 9 10 16.3327
r3 7 9 4.59
r4 5 10 0.4334
r5 4 5 5.44423
r6 2 4 1.53
.ends

.subckt PM_TOP%XDFF_TIMING_CONTROL/XI4/NET22 8 13 18 23 30 34
c0 48 0 0.0703485f
c1 39 0 0.116589f
c2 34 0 0.129127f
c3 30 0 0.131628f
c4 26 0 0.201658f
c5 23 0 0.0220041f
c6 21 0 0.537102f
c7 16 0 0.247799f
c8 13 0 0.0457375f
c9 7 0 0.0383208f
c10 6 0 0.21255f
r11 47 48 8
r12 44 48 0.252676
r13 43 44 8
r14 39 47 13.2552
r15 36 39 6.2234
r16 32 36 4.73303
r17 32 34 34.85
r18 28 36 4.73303
r19 28 30 35
r20 25 26 16.3327
r21 23 25 3.27857
r22 21 43 0.1876
r23 20 21 16.3327
r24 18 20 4.59
r25 15 16 8.16635
r26 13 15 2.295
r27 11 43 0.2458
r28 10 11 5.44423
r29 8 10 1.53
r30 6 47 0.281392
r31 6 7 0.00758554
r32 5 16 0.1152
r33 5 7 0.029782
r34 4 26 0.1714
r35 4 7 0.029782
.ends

.subckt PM_TOP%XDFF_TIMING_CONTROL/XI4/NET10 4 9 16 20 24 28
c0 48 0 0.103356f